#\#CIF1.1
##########################################################################
#               Crystallographic Information Format file 
#               Produced by PyCifRW module
# 
#  This is a CIF file.  CIF has been adopted by the International
#  Union of Crystallography as the standard for data archiving and 
#  transmission.
#
#  For information on this file format, follow the CIF links at
#  http://www.iucr.org
##########################################################################

data_Ba(AgSn)2
_symmetry_space_group_name_H-M          'P 1'
_cell_length_a                          4.90958200653
_cell_length_b                          4.9095820111
_cell_length_c                          6.74328544937
_cell_angle_alpha                       111.348198707
_cell_angle_beta                        111.348198715
_cell_angle_gamma                       90.0000000231
_chemical_name_systematic               'Generated by pymatgen'
_symmetry_Int_Tables_number             1
_chemical_formula_structural            Ba(AgSn)2
_chemical_formula_sum                   'Ba1 Ag2 Sn2'
_cell_volume                            139.345072623
_cell_formula_units_Z                   1
loop_
  _symmetry_equiv_pos_site_id
  _symmetry_equiv_pos_as_xyz
   1  'x, y, z'
 
loop_
  _atom_site_type_symbol
  _atom_site_label
  _atom_site_symmetry_multiplicity
  _atom_site_fract_x
  _atom_site_fract_y
  _atom_site_fract_z
  _atom_site_attached_hydrogens
  _atom_site_B_iso_or_equiv
  _atom_site_occupancy
   Ag  Ag1  1  0.750000  0.250000  0.500000  0  .  1
   Ag  Ag2  1  0.250000  0.750000  0.500000  0  .  1
   Sn  Sn3  1  0.626255  0.626255  0.252509  0  .  1
   Sn  Sn4  1  0.373745  0.373745  0.747491  0  .  1
   Ba  Ba5  1  0.000000  0.000000  0.000000  0  .  1
 
