#\#CIF1.1
##########################################################################
#               Crystallographic Information Format file 
#               Produced by PyCifRW module
# 
#  This is a CIF file.  CIF has been adopted by the International
#  Union of Crystallography as the standard for data archiving and 
#  transmission.
#
#  For information on this file format, follow the CIF links at
#  http://www.iucr.org
##########################################################################

data_Ba(Cu2P)4
_symmetry_space_group_name_H-M          'P 1'
_cell_length_a                          3.86506641901
_cell_length_b                          7.46811197539
_cell_length_c                          7.46811197657
_cell_angle_alpha                       86.1604527855
_cell_angle_beta                        75.0028307627
_cell_angle_gamma                       75.002830809
_chemical_name_systematic               'Generated by pymatgen'
_symmetry_Int_Tables_number             1
_chemical_formula_structural            Ba(Cu2P)4
_chemical_formula_sum                   'Ba1 Cu8 P4'
_cell_volume                            201.130372268
_cell_formula_units_Z                   1
loop_
  _symmetry_equiv_pos_site_id
  _symmetry_equiv_pos_as_xyz
   1  'x, y, z'
 
loop_
  _atom_site_type_symbol
  _atom_site_label
  _atom_site_symmetry_multiplicity
  _atom_site_fract_x
  _atom_site_fract_y
  _atom_site_fract_z
  _atom_site_attached_hydrogens
  _atom_site_B_iso_or_equiv
  _atom_site_occupancy
   P  P1  1  0.766356  0.808795  0.658493  0  .  1
   P  P2  1  0.233644  0.191205  0.341507  0  .  1
   P  P3  1  0.424849  0.341507  0.808795  0  .  1
   P  P4  1  0.575151  0.658493  0.191205  0  .  1
   Cu  Cu5  1  0.661395  0.109570  0.567640  0  .  1
   Cu  Cu6  1  0.770965  0.567640  0.890430  0  .  1
   Cu  Cu7  1  0.634370  0.379272  0.351987  0  .  1
   Cu  Cu8  1  0.365630  0.620728  0.648013  0  .  1
   Cu  Cu9  1  0.986358  0.648013  0.379272  0  .  1
   Cu  Cu10  1  0.229035  0.432360  0.109570  0  .  1
   Cu  Cu11  1  0.013642  0.351987  0.620728  0  .  1
   Cu  Cu12  1  0.338605  0.890430  0.432360  0  .  1
   Ba  Ba13  1  0.000000  0.000000  0.000000  0  .  1
 
