#\#CIF1.1
##########################################################################
#               Crystallographic Information Format file 
#               Produced by PyCifRW module
# 
#  This is a CIF file.  CIF has been adopted by the International
#  Union of Crystallography as the standard for data archiving and 
#  transmission.
#
#  For information on this file format, follow the CIF links at
#  http://www.iucr.org
##########################################################################

data_Ba(Cu5P2)2
_symmetry_space_group_name_H-M          'P 1'
_cell_length_a                          3.90140610785
_cell_length_b                          9.53726994474
_cell_length_c                          11.7841963572
_cell_angle_alpha                       92.6854578688
_cell_angle_beta                        99.5280910718
_cell_angle_gamma                       90.0607878593
_chemical_name_systematic               'Generated by pymatgen'
_symmetry_Int_Tables_number             1
_chemical_formula_structural            Ba(Cu5P2)2
_chemical_formula_sum                   'Ba2 Cu20 P8'
_cell_volume                            431.93422195
_cell_formula_units_Z                   2
loop_
  _symmetry_equiv_pos_site_id
  _symmetry_equiv_pos_as_xyz
   1  'x, y, z'
 
loop_
  _atom_site_type_symbol
  _atom_site_label
  _atom_site_symmetry_multiplicity
  _atom_site_fract_x
  _atom_site_fract_y
  _atom_site_fract_z
  _atom_site_attached_hydrogens
  _atom_site_B_iso_or_equiv
  _atom_site_occupancy
   Ba  Ba1  1  0.143578  0.782137  0.285977  0  .  1
   Ba  Ba2  1  0.861452  0.215618  0.714374  0  .  1
   Cu  Cu3  1  0.144636  0.150588  0.301813  0  .  1
   Cu  Cu4  1  0.944815  0.930334  0.902546  0  .  1
   Cu  Cu5  1  0.276790  0.431116  0.551021  0  .  1
   Cu  Cu6  1  0.045712  0.072642  0.099075  0  .  1
   Cu  Cu7  1  0.286159  0.696269  0.572623  0  .  1
   Cu  Cu8  1  0.162466  0.429920  0.332041  0  .  1
   Cu  Cu9  1  0.725681  0.570832  0.446307  0  .  1
   Cu  Cu10  1  0.588341  0.273040  0.170816  0  .  1
   Cu  Cu11  1  0.527153  0.881097  0.053321  0  .  1
   Cu  Cu12  1  0.948256  0.547469  0.886349  0  .  1
   Cu  Cu13  1  0.714694  0.036704  0.428198  0  .  1
   Cu  Cu14  1  0.847910  0.848594  0.699547  0  .  1
   Cu  Cu15  1  0.836905  0.568264  0.666372  0  .  1
   Cu  Cu16  1  0.707699  0.302606  0.424191  0  .  1
   Cu  Cu17  1  0.475573  0.380947  0.935167  0  .  1
   Cu  Cu18  1  0.478476  0.117181  0.949762  0  .  1
   Cu  Cu19  1  0.405084  0.726626  0.828844  0  .  1
   Cu  Cu20  1  0.536246  0.618973  0.064320  0  .  1
   Cu  Cu21  1  0.053716  0.454026  0.113811  0  .  1
   Cu  Cu22  1  0.284558  0.962406  0.570715  0  .  1
   P  P23  1  0.603107  0.037405  0.215796  0  .  1
   P  P24  1  0.619140  0.502798  0.243734  0  .  1
   P  P25  1  0.751149  0.812229  0.506192  0  .  1
   P  P26  1  0.382897  0.497043  0.755638  0  .  1
   P  P27  1  0.389513  0.962037  0.784657  0  .  1
   P  P28  1  -0.000209  0.265718  0.985128  0  .  1
   P  P29  1  0.245983  0.189020  0.494426  0  .  1
   P  P30  1  0.012237  0.735555  0.014981  0  .  1
 
