#\#CIF1.1
##########################################################################
#               Crystallographic Information Format file 
#               Produced by PyCifRW module
# 
#  This is a CIF file.  CIF has been adopted by the International
#  Union of Crystallography as the standard for data archiving and 
#  transmission.
#
#  For information on this file format, follow the CIF links at
#  http://www.iucr.org
##########################################################################

data_Ba(CuTe)2
_symmetry_space_group_name_H-M          'P 1'
_cell_length_a                          4.4697937
_cell_length_b                          10.13981281
_cell_length_c                          11.55934518
_cell_angle_alpha                       90.0
_cell_angle_beta                        90.0
_cell_angle_gamma                       90.0
_chemical_name_systematic               'Generated by pymatgen'
_symmetry_Int_Tables_number             1
_chemical_formula_structural            Ba(CuTe)2
_chemical_formula_sum                   'Ba4 Cu8 Te8'
_cell_volume                            523.902715262
_cell_formula_units_Z                   4
loop_
  _symmetry_equiv_pos_site_id
  _symmetry_equiv_pos_as_xyz
   1  'x, y, z'
 
loop_
  _atom_site_type_symbol
  _atom_site_label
  _atom_site_symmetry_multiplicity
  _atom_site_fract_x
  _atom_site_fract_y
  _atom_site_fract_z
  _atom_site_attached_hydrogens
  _atom_site_B_iso_or_equiv
  _atom_site_occupancy
   Cu  Cu1  1  0.250000  0.074575  0.544172  0  .  1
   Cu  Cu2  1  0.750000  0.925425  0.455828  0  .  1
   Cu  Cu3  1  0.750000  0.425425  0.044172  0  .  1
   Cu  Cu4  1  0.250000  0.574575  0.955828  0  .  1
   Cu  Cu5  1  0.750000  0.943623  0.887170  0  .  1
   Cu  Cu6  1  0.250000  0.056377  0.112830  0  .  1
   Cu  Cu7  1  0.750000  0.443623  0.612830  0  .  1
   Cu  Cu8  1  0.250000  0.556377  0.387170  0  .  1
   Te  Te9  1  0.250000  0.839560  0.962291  0  .  1
   Te  Te10  1  0.750000  0.160440  0.037709  0  .  1
   Te  Te11  1  0.750000  0.660440  0.462291  0  .  1
   Te  Te12  1  0.250000  0.339560  0.537709  0  .  1
   Te  Te13  1  0.750000  0.523174  0.830254  0  .  1
   Te  Te14  1  0.250000  0.476826  0.169746  0  .  1
   Te  Te15  1  0.750000  0.023174  0.669746  0  .  1
   Te  Te16  1  0.250000  0.976826  0.330254  0  .  1
   Ba  Ba17  1  0.750000  0.757800  0.178148  0  .  1
   Ba  Ba18  1  0.250000  0.242200  0.821852  0  .  1
   Ba  Ba19  1  0.750000  0.257800  0.321852  0  .  1
   Ba  Ba20  1  0.250000  0.742200  0.678148  0  .  1
 
