#\#CIF1.1
##########################################################################
#               Crystallographic Information Format file 
#               Produced by PyCifRW module
# 
#  This is a CIF file.  CIF has been adopted by the International
#  Union of Crystallography as the standard for data archiving and 
#  transmission.
#
#  For information on this file format, follow the CIF links at
#  http://www.iucr.org
##########################################################################

data_Ba(MgSi)2
_symmetry_space_group_name_H-M          'P 1'
_cell_length_a                          4.66797211684
_cell_length_b                          4.66797211687
_cell_length_c                          6.43914902211
_cell_angle_alpha                       111.251847483
_cell_angle_beta                        111.251847555
_cell_angle_gamma                       90.0000000337
_chemical_name_systematic               'Generated by pymatgen'
_symmetry_Int_Tables_number             1
_chemical_formula_structural            Ba(MgSi)2
_chemical_formula_sum                   'Ba1 Mg2 Si2'
_cell_volume                            120.472408139
_cell_formula_units_Z                   1
loop_
  _symmetry_equiv_pos_site_id
  _symmetry_equiv_pos_as_xyz
   1  'x, y, z'
 
loop_
  _atom_site_type_symbol
  _atom_site_label
  _atom_site_symmetry_multiplicity
  _atom_site_fract_x
  _atom_site_fract_y
  _atom_site_fract_z
  _atom_site_attached_hydrogens
  _atom_site_B_iso_or_equiv
  _atom_site_occupancy
   Mg  Mg1  1  0.750000  0.250000  0.500000  0  .  1
   Mg  Mg2  1  0.250000  0.750000  0.500000  0  .  1
   Si  Si3  1  0.612252  0.612252  0.224504  0  .  1
   Si  Si4  1  0.387748  0.387748  0.775496  0  .  1
   Ba  Ba5  1  0.000000  0.000000  0.000000  0  .  1
 
