#\#CIF1.1
##########################################################################
#               Crystallographic Information Format file 
#               Produced by PyCifRW module
# 
#  This is a CIF file.  CIF has been adopted by the International
#  Union of Crystallography as the standard for data archiving and 
#  transmission.
#
#  For information on this file format, follow the CIF links at
#  http://www.iucr.org
##########################################################################

data_Ba
_symmetry_space_group_name_H-M          'P 1'
_cell_length_a                          3.97613346911
_cell_length_b                          5.62185219432
_cell_length_c                          5.62155754661
_cell_angle_alpha                       90.0004512966
_cell_angle_beta                        89.9945340068
_cell_angle_gamma                       89.9872855838
_chemical_name_systematic               'Generated by pymatgen'
_symmetry_Int_Tables_number             1
_chemical_formula_structural            Ba
_chemical_formula_sum                   Ba2
_cell_volume                            125.659991371
_cell_formula_units_Z                   2
loop_
  _symmetry_equiv_pos_site_id
  _symmetry_equiv_pos_as_xyz
   1  'x, y, z'
 
loop_
  _atom_site_type_symbol
  _atom_site_label
  _atom_site_symmetry_multiplicity
  _atom_site_fract_x
  _atom_site_fract_y
  _atom_site_fract_z
  _atom_site_attached_hydrogens
  _atom_site_B_iso_or_equiv
  _atom_site_occupancy
   Ba  Ba1  1  0.999999  0.000001  0.999999  0  .  1
   Ba  Ba2  1  0.000001  0.499999  0.500001  0  .  1
 
