#\#CIF1.1
##########################################################################
#               Crystallographic Information Format file 
#               Produced by PyCifRW module
# 
#  This is a CIF file.  CIF has been adopted by the International
#  Union of Crystallography as the standard for data archiving and 
#  transmission.
#
#  For information on this file format, follow the CIF links at
#  http://www.iucr.org
##########################################################################

data_Ba10Cu5O17
_symmetry_space_group_name_H-M          'P 1'
_cell_length_a                          10.8212833072
_cell_length_b                          9.24274038555
_cell_length_c                          5.78843920118
_cell_angle_alpha                       109.900767642
_cell_angle_beta                        87.9198591496
_cell_angle_gamma                       95.0223373995
_chemical_name_systematic               'Generated by pymatgen'
_symmetry_Int_Tables_number             1
_chemical_formula_structural            Ba10Cu5O17
_chemical_formula_sum                   'Ba10 Cu5 O17'
_cell_volume                            542.273988196
_cell_formula_units_Z                   1
loop_
  _symmetry_equiv_pos_site_id
  _symmetry_equiv_pos_as_xyz
   1  'x, y, z'
 
loop_
  _atom_site_type_symbol
  _atom_site_label
  _atom_site_symmetry_multiplicity
  _atom_site_fract_x
  _atom_site_fract_y
  _atom_site_fract_z
  _atom_site_attached_hydrogens
  _atom_site_B_iso_or_equiv
  _atom_site_occupancy
   Ba  Ba1  1  0.981477  0.724817  0.115411  0  .  1
   Ba  Ba2  1  0.784587  0.929635  0.698879  0  .  1
   Ba  Ba3  1  0.817009  0.470562  0.491912  0  .  1
   Ba  Ba4  1  0.611955  0.672823  0.075895  0  .  1
   Ba  Ba5  1  0.415413  0.870365  0.701121  0  .  1
   Ba  Ba6  1  0.382991  0.329438  0.908088  0  .  1
   Ba  Ba7  1  0.588045  0.127177  0.324105  0  .  1
   Ba  Ba8  1  0.188736  0.527903  0.523635  0  .  1
   Ba  Ba9  1  0.218523  0.075183  0.284589  0  .  1
   Ba  Ba10  1  0.011264  0.272097  0.876365  0  .  1
   Cu  Cu11  1  0.895622  0.105570  0.293498  0  .  1
   Cu  Cu12  1  0.499104  0.501549  0.505835  0  .  1
   Cu  Cu13  1  0.700896  0.298451  0.894165  0  .  1
   Cu  Cu14  1  0.304378  0.694430  0.106502  0  .  1
   Cu  Cu15  1  0.100000  0.900000  0.700000  0  .  1
   O  O16  1  0.982347  0.722275  0.612766  0  .  1
   O  O17  1  0.790821  0.918141  0.177051  0  .  1
   O  O18  1  0.811136  0.485356  0.009278  0  .  1
   O  O19  1  0.626641  0.672388  0.567186  0  .  1
   O  O20  1  0.409179  0.881859  0.222949  0  .  1
   O  O21  1  0.804343  0.196147  0.592172  0  .  1
   O  O22  1  0.793109  0.207301  0.089004  0  .  1
   O  O23  1  0.600000  0.400000  0.700000  0  .  1
   O  O24  1  0.395657  0.603853  0.807828  0  .  1
   O  O25  1  0.406891  0.592699  0.310996  0  .  1
   O  O26  1  0.185409  0.814935  0.892833  0  .  1
   O  O27  1  0.573359  0.127612  0.832814  0  .  1
   O  O28  1  0.173935  0.532112  0.042389  0  .  1
   O  O29  1  0.388864  0.314644  0.390722  0  .  1
   O  O30  1  0.217653  0.077725  0.787234  0  .  1
   O  O31  1  0.026065  0.267888  0.357611  0  .  1
   O  O32  1  0.014591  0.985065  0.507167  0  .  1
 
