#\#CIF1.1
##########################################################################
#               Crystallographic Information Format file 
#               Produced by PyCifRW module
# 
#  This is a CIF file.  CIF has been adopted by the International
#  Union of Crystallography as the standard for data archiving and 
#  transmission.
#
#  For information on this file format, follow the CIF links at
#  http://www.iucr.org
##########################################################################

data_Ba2BiSbO6
_symmetry_space_group_name_H-M          'P 1'
_cell_length_a                          6.10300249425
_cell_length_b                          6.10300249537
_cell_length_c                          6.10300249612
_cell_angle_alpha                       60.4782958587
_cell_angle_beta                        60.4782958818
_cell_angle_gamma                       60.4782959004
_chemical_name_systematic               'Generated by pymatgen'
_symmetry_Int_Tables_number             1
_chemical_formula_structural            Ba2BiSbO6
_chemical_formula_sum                   'Ba2 Bi1 Sb1 O6'
_cell_volume                            162.474642345
_cell_formula_units_Z                   1
loop_
  _symmetry_equiv_pos_site_id
  _symmetry_equiv_pos_as_xyz
   1  'x, y, z'
 
loop_
  _atom_site_type_symbol
  _atom_site_label
  _atom_site_symmetry_multiplicity
  _atom_site_fract_x
  _atom_site_fract_y
  _atom_site_fract_z
  _atom_site_attached_hydrogens
  _atom_site_B_iso_or_equiv
  _atom_site_occupancy
   O  O1  1  0.271296  0.778852  0.685017  0  .  1
   O  O2  1  0.778852  0.685017  0.271296  0  .  1
   O  O3  1  0.685017  0.271296  0.778852  0  .  1
   O  O4  1  0.728704  0.221148  0.314983  0  .  1
   O  O5  1  0.314983  0.728704  0.221148  0  .  1
   O  O6  1  0.221148  0.314983  0.728704  0  .  1
   Sb  Sb7  1  0.500000  0.500000  0.500000  0  .  1
   Ba  Ba8  1  0.748704  0.748704  0.748704  0  .  1
   Ba  Ba9  1  0.251296  0.251296  0.251296  0  .  1
   Bi  Bi10  1  0.000000  0.000000  0.000000  0  .  1
 
