#\#CIF1.1
##########################################################################
#               Crystallographic Information Format file 
#               Produced by PyCifRW module
# 
#  This is a CIF file.  CIF has been adopted by the International
#  Union of Crystallography as the standard for data archiving and 
#  transmission.
#
#  For information on this file format, follow the CIF links at
#  http://www.iucr.org
##########################################################################

data_Ba2Cr7O14
_symmetry_space_group_name_H-M          'P 1'
_cell_length_a                          9.95558506053
_cell_length_b                          9.95558506017
_cell_length_c                          9.95558505786
_cell_angle_alpha                       34.3962848918
_cell_angle_beta                        34.3962849279
_cell_angle_gamma                       34.3962848633
_chemical_name_systematic               'Generated by pymatgen'
_symmetry_Int_Tables_number             1
_chemical_formula_structural            Ba2Cr7O14
_chemical_formula_sum                   'Ba2 Cr7 O14'
_cell_volume                            280.875084711
_cell_formula_units_Z                   1
loop_
  _symmetry_equiv_pos_site_id
  _symmetry_equiv_pos_as_xyz
   1  'x, y, z'
 
loop_
  _atom_site_type_symbol
  _atom_site_label
  _atom_site_symmetry_multiplicity
  _atom_site_fract_x
  _atom_site_fract_y
  _atom_site_fract_z
  _atom_site_attached_hydrogens
  _atom_site_B_iso_or_equiv
  _atom_site_occupancy
   O  O1  1  0.870749  0.870749  0.870749  0  .  1
   O  O2  1  0.129251  0.129251  0.129251  0  .  1
   O  O3  1  0.364453  0.364453  0.886888  0  .  1
   O  O4  1  0.364453  0.886888  0.364453  0  .  1
   O  O5  1  0.886888  0.364453  0.364453  0  .  1
   O  O6  1  0.113112  0.635547  0.635547  0  .  1
   O  O7  1  0.635547  0.635547  0.113112  0  .  1
   O  O8  1  0.635547  0.113112  0.635547  0  .  1
   O  O9  1  0.219188  0.219188  0.706761  0  .  1
   O  O10  1  0.780812  0.293239  0.780812  0  .  1
   O  O11  1  0.780812  0.780812  0.293239  0  .  1
   O  O12  1  0.293239  0.780812  0.780812  0  .  1
   O  O13  1  0.706761  0.219188  0.219188  0  .  1
   O  O14  1  0.219188  0.706761  0.219188  0  .  1
   Cr  Cr15  1  0.937874  0.937874  0.937874  0  .  1
   Cr  Cr16  1  0.062126  0.062126  0.062126  0  .  1
   Cr  Cr17  1  0.572556  0.572556  0.572556  0  .  1
   Cr  Cr18  1  0.427444  0.427444  0.427444  0  .  1
   Cr  Cr19  1  0.000000  0.500000  0.000000  0  .  1
   Cr  Cr20  1  0.500000  0.000000  0.000000  0  .  1
   Cr  Cr21  1  0.000000  0.000000  0.500000  0  .  1
   Ba  Ba22  1  0.710948  0.710948  0.710948  0  .  1
   Ba  Ba23  1  0.289052  0.289052  0.289052  0  .  1
 
