#\#CIF1.1
##########################################################################
#               Crystallographic Information Format file 
#               Produced by PyCifRW module
# 
#  This is a CIF file.  CIF has been adopted by the International
#  Union of Crystallography as the standard for data archiving and 
#  transmission.
#
#  For information on this file format, follow the CIF links at
#  http://www.iucr.org
##########################################################################

data_Ba2CoS3
_symmetry_space_group_name_H-M          'P 1'
_cell_length_a                          4.21270415
_cell_length_b                          12.1638105
_cell_length_c                          12.43083452
_cell_angle_alpha                       90.0
_cell_angle_beta                        90.0
_cell_angle_gamma                       90.0
_chemical_name_systematic               'Generated by pymatgen'
_symmetry_Int_Tables_number             1
_chemical_formula_structural            Ba2CoS3
_chemical_formula_sum                   'Ba8 Co4 S12'
_cell_volume                            636.987472637
_cell_formula_units_Z                   4
loop_
  _symmetry_equiv_pos_site_id
  _symmetry_equiv_pos_as_xyz
   1  'x, y, z'
 
loop_
  _atom_site_type_symbol
  _atom_site_label
  _atom_site_symmetry_multiplicity
  _atom_site_fract_x
  _atom_site_fract_y
  _atom_site_fract_z
  _atom_site_attached_hydrogens
  _atom_site_B_iso_or_equiv
  _atom_site_occupancy
   S  S1  1  0.250000  0.771561  0.719989  0  .  1
   S  S2  1  0.750000  0.228439  0.280011  0  .  1
   S  S3  1  0.250000  0.271561  0.780011  0  .  1
   S  S4  1  0.750000  0.728439  0.219989  0  .  1
   S  S5  1  0.250000  0.435310  0.140433  0  .  1
   S  S6  1  0.750000  0.564690  0.859567  0  .  1
   S  S7  1  0.250000  0.935310  0.359567  0  .  1
   S  S8  1  0.750000  0.360646  0.553950  0  .  1
   S  S9  1  0.250000  0.139354  0.053950  0  .  1
   S  S10  1  0.750000  0.860646  0.946050  0  .  1
   S  S11  1  0.250000  0.639354  0.446050  0  .  1
   S  S12  1  0.750000  0.064690  0.640433  0  .  1
   Co  Co13  1  0.750000  0.244816  0.697455  0  .  1
   Co  Co14  1  0.750000  0.744816  0.802545  0  .  1
   Co  Co15  1  0.250000  0.755184  0.302545  0  .  1
   Co  Co16  1  0.250000  0.255184  0.197455  0  .  1
   Ba  Ba17  1  0.250000  0.011204  0.825916  0  .  1
   Ba  Ba18  1  0.750000  0.488796  0.325916  0  .  1
   Ba  Ba19  1  0.250000  0.511204  0.674084  0  .  1
   Ba  Ba20  1  0.750000  0.988796  0.174084  0  .  1
   Ba  Ba21  1  0.250000  0.172884  0.477892  0  .  1
   Ba  Ba22  1  0.750000  0.827116  0.522108  0  .  1
   Ba  Ba23  1  0.250000  0.672884  0.022108  0  .  1
   Ba  Ba24  1  0.750000  0.327116  0.977892  0  .  1
 
