#\#CIF1.1
##########################################################################
#               Crystallographic Information Format file 
#               Produced by PyCifRW module
# 
#  This is a CIF file.  CIF has been adopted by the International
#  Union of Crystallography as the standard for data archiving and 
#  transmission.
#
#  For information on this file format, follow the CIF links at
#  http://www.iucr.org
##########################################################################

data_Ba2Cu3P4
_symmetry_space_group_name_H-M          'P 1'
_cell_length_a                          6.21478888071
_cell_length_b                          8.38919700689
_cell_length_c                          8.38919700653
_cell_angle_alpha                       67.9603738501
_cell_angle_beta                        68.259447842
_cell_angle_gamma                       68.2594478289
_chemical_name_systematic               'Generated by pymatgen'
_symmetry_Int_Tables_number             1
_chemical_formula_structural            Ba2Cu3P4
_chemical_formula_sum                   'Ba4 Cu6 P8'
_cell_volume                            362.731252714
_cell_formula_units_Z                   2
loop_
  _symmetry_equiv_pos_site_id
  _symmetry_equiv_pos_as_xyz
   1  'x, y, z'
 
loop_
  _atom_site_type_symbol
  _atom_site_label
  _atom_site_symmetry_multiplicity
  _atom_site_fract_x
  _atom_site_fract_y
  _atom_site_fract_z
  _atom_site_attached_hydrogens
  _atom_site_B_iso_or_equiv
  _atom_site_occupancy
   P  P1  1  0.121527  0.510733  0.246213  0  .  1
   P  P2  1  0.878473  0.489267  0.753787  0  .  1
   P  P3  1  0.378473  0.753787  0.489267  0  .  1
   P  P4  1  0.621527  0.246213  0.510733  0  .  1
   P  P5  1  0.340427  0.027285  0.291861  0  .  1
   P  P6  1  0.659573  0.972715  0.708139  0  .  1
   P  P7  1  0.840427  0.291861  0.027285  0  .  1
   P  P8  1  0.159573  0.708139  0.972715  0  .  1
   Cu  Cu9  1  0.750000  0.500000  0.500000  0  .  1
   Cu  Cu10  1  0.250000  0.500000  0.500000  0  .  1
   Cu  Cu11  1  0.029167  0.720833  0.720833  0  .  1
   Cu  Cu12  1  0.470833  0.279167  0.279167  0  .  1
   Cu  Cu13  1  0.529167  0.720833  0.720833  0  .  1
   Cu  Cu14  1  0.970833  0.279167  0.279167  0  .  1
   Ba  Ba15  1  0.890814  0.905490  0.312883  0  .  1
   Ba  Ba16  1  0.109186  0.094510  0.687117  0  .  1
   Ba  Ba17  1  0.609186  0.687117  0.094510  0  .  1
   Ba  Ba18  1  0.390814  0.312883  0.905490  0  .  1
 
