#\#CIF1.1
##########################################################################
#               Crystallographic Information Format file 
#               Produced by PyCifRW module
# 
#  This is a CIF file.  CIF has been adopted by the International
#  Union of Crystallography as the standard for data archiving and 
#  transmission.
#
#  For information on this file format, follow the CIF links at
#  http://www.iucr.org
##########################################################################

data_Ba2CoO4
_symmetry_space_group_name_H-M          'P 1'
_cell_length_a                          6.10972100145
_cell_length_b                          7.69918564
_cell_length_c                          10.5365109972
_cell_angle_alpha                       90.0
_cell_angle_beta                        93.2044313002
_cell_angle_gamma                       90.0
_chemical_name_systematic               'Generated by pymatgen'
_symmetry_Int_Tables_number             1
_chemical_formula_structural            Ba2CoO4
_chemical_formula_sum                   'Ba8 Co4 O16'
_cell_volume                            494.861217921
_cell_formula_units_Z                   4
loop_
  _symmetry_equiv_pos_site_id
  _symmetry_equiv_pos_as_xyz
   1  'x, y, z'
 
loop_
  _atom_site_type_symbol
  _atom_site_label
  _atom_site_symmetry_multiplicity
  _atom_site_fract_x
  _atom_site_fract_y
  _atom_site_fract_z
  _atom_site_attached_hydrogens
  _atom_site_B_iso_or_equiv
  _atom_site_occupancy
   O  O1  1  0.178802  0.318634  0.426446  0  .  1
   O  O2  1  0.321198  0.818634  0.073554  0  .  1
   O  O3  1  0.821198  0.681366  0.573554  0  .  1
   O  O4  1  0.678802  0.181366  0.926446  0  .  1
   O  O5  1  0.497349  0.327597  0.637196  0  .  1
   O  O6  1  0.002651  0.827597  0.862804  0  .  1
   O  O7  1  0.502651  0.672403  0.362804  0  .  1
   O  O8  1  0.997349  0.172403  0.137196  0  .  1
   O  O9  1  0.023834  0.269606  0.684188  0  .  1
   O  O10  1  0.476166  0.769606  0.815812  0  .  1
   O  O11  1  0.976166  0.730394  0.315812  0  .  1
   O  O12  1  0.523834  0.230394  0.184188  0  .  1
   O  O13  1  0.784737  0.505814  0.071663  0  .  1
   O  O14  1  0.715263  0.005814  0.428337  0  .  1
   O  O15  1  0.215263  0.494186  0.928337  0  .  1
   O  O16  1  0.284737  0.994186  0.571663  0  .  1
   Co  Co17  1  0.243413  0.222736  0.582478  0  .  1
   Co  Co18  1  0.256587  0.722736  0.917522  0  .  1
   Co  Co19  1  0.756587  0.777264  0.417522  0  .  1
   Co  Co20  1  0.743413  0.277264  0.082478  0  .  1
   Ba  Ba21  1  0.726632  0.000177  0.691853  0  .  1
   Ba  Ba22  1  0.773368  0.500177  0.808147  0  .  1
   Ba  Ba23  1  0.273368  0.999823  0.308147  0  .  1
   Ba  Ba24  1  0.226632  0.499823  0.191853  0  .  1
   Ba  Ba25  1  0.262386  0.652314  0.578243  0  .  1
   Ba  Ba26  1  0.237614  0.152314  0.921757  0  .  1
   Ba  Ba27  1  0.737614  0.347686  0.421757  0  .  1
   Ba  Ba28  1  0.762386  0.847686  0.078243  0  .  1
 
