#\#CIF1.1
##########################################################################
#               Crystallographic Information Format file 
#               Produced by PyCifRW module
# 
#  This is a CIF file.  CIF has been adopted by the International
#  Union of Crystallography as the standard for data archiving and 
#  transmission.
#
#  For information on this file format, follow the CIF links at
#  http://www.iucr.org
##########################################################################

data_Ba2Fe2O5
_symmetry_space_group_name_H-M          'P 1'
_cell_length_a                          7.18771162951
_cell_length_b                          11.66751452
_cell_length_c                          23.6363344245
_cell_angle_alpha                       90.0
_cell_angle_beta                        96.8160341949
_cell_angle_gamma                       90.0
_chemical_name_systematic               'Generated by pymatgen'
_symmetry_Int_Tables_number             1
_chemical_formula_structural            Ba2Fe2O5
_chemical_formula_sum                   'Ba28 Fe28 O70'
_cell_volume                            1968.19794649
_cell_formula_units_Z                   14
loop_
  _symmetry_equiv_pos_site_id
  _symmetry_equiv_pos_as_xyz
   1  'x, y, z'
 
loop_
  _atom_site_type_symbol
  _atom_site_label
  _atom_site_symmetry_multiplicity
  _atom_site_fract_x
  _atom_site_fract_y
  _atom_site_fract_z
  _atom_site_attached_hydrogens
  _atom_site_B_iso_or_equiv
  _atom_site_occupancy
   Ba  Ba1  1  0.677923  0.116715  0.034226  0  .  1
   Ba  Ba2  1  0.684573  0.635420  0.037310  0  .  1
   Ba  Ba3  1  0.177923  0.383285  0.534226  0  .  1
   Ba  Ba4  1  0.236601  0.131641  0.755743  0  .  1
   Ba  Ba5  1  0.322077  0.883285  0.965774  0  .  1
   Ba  Ba6  1  0.611809  0.365875  0.817460  0  .  1
   Ba  Ba7  1  0.972314  0.640209  0.893873  0  .  1
   Ba  Ba8  1  0.388191  0.634125  0.182540  0  .  1
   Ba  Ba9  1  0.472314  0.859791  0.393873  0  .  1
   Ba  Ba10  1  0.962629  0.114586  0.896458  0  .  1
   Ba  Ba11  1  0.462629  0.385414  0.396458  0  .  1
   Ba  Ba12  1  0.263399  0.631641  0.744257  0  .  1
   Ba  Ba13  1  0.815427  0.135420  0.462690  0  .  1
   Ba  Ba14  1  0.184573  0.864580  0.537310  0  .  1
   Ba  Ba15  1  0.537371  0.614586  0.603542  0  .  1
   Ba  Ba16  1  0.763399  0.868359  0.244257  0  .  1
   Ba  Ba17  1  0.037371  0.885414  0.103542  0  .  1
   Ba  Ba18  1  0.888191  0.865875  0.682540  0  .  1
   Ba  Ba19  1  0.736601  0.368359  0.255743  0  .  1
   Ba  Ba20  1  0.315427  0.364580  0.962690  0  .  1
   Ba  Ba21  1  0.111809  0.134125  0.317460  0  .  1
   Ba  Ba22  1  0.027686  0.359791  0.106126  0  .  1
   Ba  Ba23  1  0.103697  0.623984  0.328988  0  .  1
   Ba  Ba24  1  0.603697  0.876016  0.828988  0  .  1
   Ba  Ba25  1  0.396303  0.123984  0.171012  0  .  1
   Ba  Ba26  1  0.527686  0.140209  0.606127  0  .  1
   Ba  Ba27  1  0.822077  0.616715  0.465774  0  .  1
   Ba  Ba28  1  0.896303  0.376016  0.671012  0  .  1
   Fe  Fe29  1  0.313891  0.621350  0.464709  0  .  1
   Fe  Fe30  1  0.460703  0.630512  0.900280  0  .  1
   Fe  Fe31  1  0.727063  0.862988  0.536286  0  .  1
   Fe  Fe32  1  0.700278  0.097938  0.753581  0  .  1
   Fe  Fe33  1  0.036933  0.615424  0.603497  0  .  1
   Fe  Fe34  1  0.799722  0.597938  0.746419  0  .  1
   Fe  Fe35  1  0.272937  0.137012  0.463714  0  .  1
   Fe  Fe36  1  0.662613  0.101548  0.314829  0  .  1
   Fe  Fe37  1  0.039297  0.130512  0.599720  0  .  1
   Fe  Fe38  1  0.463067  0.115424  0.896503  0  .  1
   Fe  Fe39  1  0.162613  0.398452  0.814829  0  .  1
   Fe  Fe40  1  0.536933  0.884576  0.103497  0  .  1
   Fe  Fe41  1  0.963067  0.384576  0.396503  0  .  1
   Fe  Fe42  1  0.772937  0.362988  0.963714  0  .  1
   Fe  Fe43  1  0.123352  0.878838  0.828304  0  .  1
   Fe  Fe44  1  0.623352  0.621162  0.328304  0  .  1
   Fe  Fe45  1  0.337387  0.898452  0.685171  0  .  1
   Fe  Fe46  1  0.186109  0.121350  0.035291  0  .  1
   Fe  Fe47  1  0.813891  0.878650  0.964709  0  .  1
   Fe  Fe48  1  0.200278  0.402062  0.253581  0  .  1
   Fe  Fe49  1  0.539297  0.369488  0.099720  0  .  1
   Fe  Fe50  1  0.837387  0.601548  0.185171  0  .  1
   Fe  Fe51  1  0.876648  0.121162  0.171696  0  .  1
   Fe  Fe52  1  0.960703  0.869488  0.400280  0  .  1
   Fe  Fe53  1  0.686109  0.378650  0.535291  0  .  1
   Fe  Fe54  1  0.299722  0.902062  0.246419  0  .  1
   Fe  Fe55  1  0.376648  0.378838  0.671696  0  .  1
   Fe  Fe56  1  0.227063  0.637012  0.036286  0  .  1
   O  O57  1  0.654194  0.235628  0.713727  0  .  1
   O  O58  1  0.918093  0.623697  0.679988  0  .  1
   O  O59  1  0.731537  0.632225  0.253614  0  .  1
   O  O60  1  0.291212  0.501565  0.078551  0  .  1
   O  O61  1  0.348990  0.257096  0.074651  0  .  1
   O  O62  1  0.845806  0.735628  0.786273  0  .  1
   O  O63  1  0.570446  0.524179  0.721967  0  .  1
   O  O64  1  0.879378  0.750529  0.577732  0  .  1
   O  O65  1  0.318390  0.128328  0.965380  0  .  1
   O  O66  1  0.848990  0.242904  0.574651  0  .  1
   O  O67  1  0.861005  0.496265  0.570862  0  .  1
   O  O68  1  0.120622  0.249471  0.422268  0  .  1
   O  O69  1  0.708788  0.498435  0.921449  0  .  1
   O  O70  1  0.768463  0.132225  0.246386  0  .  1
   O  O71  1  0.668966  0.390379  0.034222  0  .  1
   O  O72  1  0.694884  0.237179  0.354440  0  .  1
   O  O73  1  0.151010  0.757096  0.425349  0  .  1
   O  O74  1  0.138995  0.503735  0.429138  0  .  1
   O  O75  1  0.929554  0.024179  0.778033  0  .  1
   O  O76  1  0.705137  0.253678  0.144551  0  .  1
   O  O77  1  0.345806  0.764372  0.286273  0  .  1
   O  O78  1  0.794863  0.753678  0.355449  0  .  1
   O  O79  1  0.031190  0.128102  0.107099  0  .  1
   O  O80  1  0.835801  0.994237  0.353266  0  .  1
   O  O81  1  0.072134  0.523936  0.205092  0  .  1
   O  O82  1  0.429554  0.475821  0.278033  0  .  1
   O  O83  1  0.181610  0.628328  0.534620  0  .  1
   O  O84  1  0.168966  0.109621  0.534222  0  .  1
   O  O85  1  0.968810  0.871898  0.892901  0  .  1
   O  O86  1  0.208788  0.001565  0.421449  0  .  1
   O  O87  1  0.331034  0.609621  0.965778  0  .  1
   O  O88  1  0.361005  0.003735  0.070862  0  .  1
   O  O89  1  0.081907  0.376303  0.320012  0  .  1
   O  O90  1  0.581907  0.123697  0.820012  0  .  1
   O  O91  1  0.000000  0.000000  0.000000  0  .  1
   O  O92  1  0.305116  0.762821  0.645560  0  .  1
   O  O93  1  0.205137  0.246322  0.644551  0  .  1
   O  O94  1  0.003892  0.715421  0.010693  0  .  1
   O  O95  1  0.154194  0.264372  0.213727  0  .  1
   O  O96  1  0.231537  0.867775  0.753614  0  .  1
   O  O97  1  0.818390  0.371672  0.465380  0  .  1
   O  O98  1  0.791212  0.998435  0.578551  0  .  1
   O  O99  1  0.721778  0.996257  0.141114  0  .  1
   O  O100  1  0.294863  0.746322  0.855449  0  .  1
   O  O101  1  0.531190  0.371898  0.607099  0  .  1
   O  O102  1  0.996108  0.284579  0.989307  0  .  1
   O  O103  1  0.638995  0.996265  0.929138  0  .  1
   O  O104  1  0.335801  0.505763  0.853266  0  .  1
   O  O105  1  0.496108  0.215421  0.489307  0  .  1
   O  O106  1  0.778222  0.496257  0.358886  0  .  1
   O  O107  1  0.468810  0.628102  0.392901  0  .  1
   O  O108  1  0.500000  0.500000  0.500000  0  .  1
   O  O109  1  0.164199  0.005763  0.646734  0  .  1
   O  O110  1  0.221778  0.503743  0.641114  0  .  1
   O  O111  1  0.070446  0.975821  0.221967  0  .  1
   O  O112  1  0.620622  0.250529  0.922268  0  .  1
   O  O113  1  0.805116  0.737179  0.145560  0  .  1
   O  O114  1  0.572134  0.976064  0.705092  0  .  1
   O  O115  1  0.418093  0.876303  0.179988  0  .  1
   O  O116  1  0.664199  0.494237  0.146734  0  .  1
   O  O117  1  0.427866  0.023936  0.294908  0  .  1
   O  O118  1  0.278222  0.003743  0.858886  0  .  1
   O  O119  1  0.379378  0.749471  0.077732  0  .  1
   O  O120  1  0.194884  0.262821  0.854440  0  .  1
   O  O121  1  0.927866  0.476064  0.794908  0  .  1
   O  O122  1  0.503892  0.784579  0.510693  0  .  1
   O  O123  1  0.651010  0.742904  0.925349  0  .  1
   O  O124  1  0.831034  0.890379  0.465778  0  .  1
   O  O125  1  0.681610  0.871672  0.034620  0  .  1
   O  O126  1  0.268463  0.367775  0.746386  0  .  1
 
