#\#CIF1.1
##########################################################################
#               Crystallographic Information Format file 
#               Produced by PyCifRW module
# 
#  This is a CIF file.  CIF has been adopted by the International
#  Union of Crystallography as the standard for data archiving and 
#  transmission.
#
#  For information on this file format, follow the CIF links at
#  http://www.iucr.org
##########################################################################

data_Ba2LaRuO6
_symmetry_space_group_name_H-M          'P 1'
_cell_length_a                          6.08111936299
_cell_length_b                          6.08111936326
_cell_length_c                          6.08111936414
_cell_angle_alpha                       60.6491633913
_cell_angle_beta                        60.6491633823
_cell_angle_gamma                       60.6491633658
_chemical_name_systematic               'Generated by pymatgen'
_symmetry_Int_Tables_number             1
_chemical_formula_structural            Ba2LaRuO6
_chemical_formula_sum                   'Ba2 La1 Ru1 O6'
_cell_volume                            161.344697041
_cell_formula_units_Z                   1
loop_
  _symmetry_equiv_pos_site_id
  _symmetry_equiv_pos_as_xyz
   1  'x, y, z'
 
loop_
  _atom_site_type_symbol
  _atom_site_label
  _atom_site_symmetry_multiplicity
  _atom_site_fract_x
  _atom_site_fract_y
  _atom_site_fract_z
  _atom_site_attached_hydrogens
  _atom_site_B_iso_or_equiv
  _atom_site_occupancy
   O  O1  1  0.275101  0.771967  0.684471  0  .  1
   O  O2  1  0.771967  0.684471  0.275101  0  .  1
   O  O3  1  0.684471  0.275101  0.771967  0  .  1
   O  O4  1  0.724899  0.228033  0.315529  0  .  1
   O  O5  1  0.315529  0.724899  0.228033  0  .  1
   O  O6  1  0.228033  0.315529  0.724899  0  .  1
   Ru  Ru7  1  0.500000  0.500000  0.500000  0  .  1
   Ba  Ba8  1  0.747971  0.747971  0.747971  0  .  1
   Ba  Ba9  1  0.252029  0.252029  0.252029  0  .  1
   La  La10  1  0.000000  0.000000  0.000000  0  .  1
 
