#\#CIF1.1
##########################################################################
#               Crystallographic Information Format file 
#               Produced by PyCifRW module
# 
#  This is a CIF file.  CIF has been adopted by the International
#  Union of Crystallography as the standard for data archiving and 
#  transmission.
#
#  For information on this file format, follow the CIF links at
#  http://www.iucr.org
##########################################################################

data_Ba2LaTaO6
_symmetry_space_group_name_H-M          'P 1'
_cell_length_a                          6.13586863606
_cell_length_b                          6.13586863883
_cell_length_c                          6.13586863333
_cell_angle_alpha                       60.6969375179
_cell_angle_beta                        60.6969374985
_cell_angle_gamma                       60.6969375364
_chemical_name_systematic               'Generated by pymatgen'
_symmetry_Int_Tables_number             1
_chemical_formula_structural            Ba2LaTaO6
_chemical_formula_sum                   'Ba2 La1 Ta1 O6'
_cell_volume                            165.917264363
_cell_formula_units_Z                   1
loop_
  _symmetry_equiv_pos_site_id
  _symmetry_equiv_pos_as_xyz
   1  'x, y, z'
 
loop_
  _atom_site_type_symbol
  _atom_site_label
  _atom_site_symmetry_multiplicity
  _atom_site_fract_x
  _atom_site_fract_y
  _atom_site_fract_z
  _atom_site_attached_hydrogens
  _atom_site_B_iso_or_equiv
  _atom_site_occupancy
   O  O1  1  0.276797  0.785584  0.670895  0  .  1
   O  O2  1  0.785584  0.670895  0.276797  0  .  1
   O  O3  1  0.670895  0.276797  0.785584  0  .  1
   O  O4  1  0.723203  0.214416  0.329105  0  .  1
   O  O5  1  0.329105  0.723203  0.214416  0  .  1
   O  O6  1  0.214416  0.329105  0.723203  0  .  1
   Ba  Ba7  1  0.252324  0.252324  0.252324  0  .  1
   Ba  Ba8  1  0.747676  0.747676  0.747676  0  .  1
   La  La9  1  0.000000  0.000000  0.000000  0  .  1
   Ta  Ta10  1  0.500000  0.500000  0.500000  0  .  1
 
