#\#CIF1.1
##########################################################################
#               Crystallographic Information Format file 
#               Produced by PyCifRW module
# 
#  This is a CIF file.  CIF has been adopted by the International
#  Union of Crystallography as the standard for data archiving and 
#  transmission.
#
#  For information on this file format, follow the CIF links at
#  http://www.iucr.org
##########################################################################

data_Ba2MnSe3
_symmetry_space_group_name_H-M          'P 1'
_cell_length_a                          4.52444122
_cell_length_b                          9.24743594
_cell_length_c                          17.90888224
_cell_angle_alpha                       90.0
_cell_angle_beta                        90.0
_cell_angle_gamma                       90.0
_chemical_name_systematic               'Generated by pymatgen'
_symmetry_Int_Tables_number             1
_chemical_formula_structural            Ba2MnSe3
_chemical_formula_sum                   'Ba8 Mn4 Se12'
_cell_volume                            749.298326504
_cell_formula_units_Z                   4
loop_
  _symmetry_equiv_pos_site_id
  _symmetry_equiv_pos_as_xyz
   1  'x, y, z'
 
loop_
  _atom_site_type_symbol
  _atom_site_label
  _atom_site_symmetry_multiplicity
  _atom_site_fract_x
  _atom_site_fract_y
  _atom_site_fract_z
  _atom_site_attached_hydrogens
  _atom_site_B_iso_or_equiv
  _atom_site_occupancy
   Mn  Mn1  1  0.750000  0.629482  0.865903  0  .  1
   Mn  Mn2  1  0.250000  0.870518  0.365903  0  .  1
   Mn  Mn3  1  0.750000  0.129482  0.634097  0  .  1
   Mn  Mn4  1  0.250000  0.370518  0.134097  0  .  1
   Se  Se5  1  0.250000  0.626471  0.427581  0  .  1
   Se  Se6  1  0.750000  0.373529  0.572419  0  .  1
   Se  Se7  1  0.250000  0.126471  0.072419  0  .  1
   Se  Se8  1  0.750000  0.873529  0.927581  0  .  1
   Se  Se9  1  0.250000  0.502783  0.899159  0  .  1
   Se  Se10  1  0.750000  0.997217  0.399159  0  .  1
   Se  Se11  1  0.250000  0.002783  0.600841  0  .  1
   Se  Se12  1  0.750000  0.497217  0.100841  0  .  1
   Se  Se13  1  0.750000  0.679755  0.727400  0  .  1
   Se  Se14  1  0.250000  0.320245  0.272600  0  .  1
   Se  Se15  1  0.750000  0.179755  0.772600  0  .  1
   Se  Se16  1  0.250000  0.820245  0.227400  0  .  1
   Ba  Ba17  1  0.250000  0.753257  0.042323  0  .  1
   Ba  Ba18  1  0.750000  0.246743  0.957677  0  .  1
   Ba  Ba19  1  0.250000  0.253257  0.457677  0  .  1
   Ba  Ba20  1  0.750000  0.746743  0.542323  0  .  1
   Ba  Ba21  1  0.250000  0.916844  0.785902  0  .  1
   Ba  Ba22  1  0.750000  0.083156  0.214098  0  .  1
   Ba  Ba23  1  0.250000  0.416844  0.714098  0  .  1
   Ba  Ba24  1  0.750000  0.583156  0.285901  0  .  1
 
