#\#CIF1.1
##########################################################################
#               Crystallographic Information Format file 
#               Produced by PyCifRW module
# 
#  This is a CIF file.  CIF has been adopted by the International
#  Union of Crystallography as the standard for data archiving and 
#  transmission.
#
#  For information on this file format, follow the CIF links at
#  http://www.iucr.org
##########################################################################

data_Ba2Na(CuO2)3
_symmetry_space_group_name_H-M          'P 1'
_cell_length_a                          7.15746370161
_cell_length_b                          7.15746370338
_cell_length_c                          8.45823401096
_cell_angle_alpha                       107.370767936
_cell_angle_beta                        107.370767917
_cell_angle_gamma                       107.120128427
_chemical_name_systematic               'Generated by pymatgen'
_symmetry_Int_Tables_number             1
_chemical_formula_structural            Ba2Na(CuO2)3
_chemical_formula_sum                   'Ba4 Na2 Cu6 O12'
_cell_volume                            357.997339481
_cell_formula_units_Z                   2
loop_
  _symmetry_equiv_pos_site_id
  _symmetry_equiv_pos_as_xyz
   1  'x, y, z'
 
loop_
  _atom_site_type_symbol
  _atom_site_label
  _atom_site_symmetry_multiplicity
  _atom_site_fract_x
  _atom_site_fract_y
  _atom_site_fract_z
  _atom_site_attached_hydrogens
  _atom_site_B_iso_or_equiv
  _atom_site_occupancy
   O  O1  1  0.501834  0.277731  0.185386  0  .  1
   O  O2  1  0.092345  0.316448  0.814614  0  .  1
   O  O3  1  0.722269  0.498166  0.814614  0  .  1
   O  O4  1  0.683552  0.907655  0.185386  0  .  1
   O  O5  1  0.498166  0.722269  0.814614  0  .  1
   O  O6  1  0.907655  0.683552  0.185386  0  .  1
   O  O7  1  0.071602  0.305157  0.376759  0  .  1
   O  O8  1  0.316448  0.092345  0.814614  0  .  1
   O  O9  1  0.305157  0.071602  0.376759  0  .  1
   O  O10  1  0.694843  0.928398  0.623241  0  .  1
   O  O11  1  0.928398  0.694843  0.623241  0  .  1
   O  O12  1  0.277731  0.501834  0.185386  0  .  1
   Na  Na13  1  0.330549  0.330549  0.661099  0  .  1
   Na  Na14  1  0.669451  0.669451  0.338901  0  .  1
   Cu  Cu15  1  0.996827  0.996827  0.296849  0  .  1
   Cu  Cu16  1  0.699978  0.699978  0.703151  0  .  1
   Cu  Cu17  1  0.300022  0.300022  0.296849  0  .  1
   Cu  Cu18  1  0.003173  0.003173  0.703151  0  .  1
   Cu  Cu19  1  0.309871  0.309871  0.000000  0  .  1
   Cu  Cu20  1  0.690129  0.690129  0.000000  0  .  1
   Ba  Ba21  1  0.250000  0.750000  0.500000  0  .  1
   Ba  Ba22  1  0.750000  0.250000  0.500000  0  .  1
   Ba  Ba23  1  0.231246  0.768754  0.000000  0  .  1
   Ba  Ba24  1  0.768754  0.231246  0.000000  0  .  1
 
