#\#CIF1.1
##########################################################################
#               Crystallographic Information Format file 
#               Produced by PyCifRW module
# 
#  This is a CIF file.  CIF has been adopted by the International
#  Union of Crystallography as the standard for data archiving and 
#  transmission.
#
#  For information on this file format, follow the CIF links at
#  http://www.iucr.org
##########################################################################

data_Ba2PrNbO6
_symmetry_space_group_name_H-M          'P 1'
_cell_length_a                          6.13322444872
_cell_length_b                          6.13324693968
_cell_length_c                          6.13327620736
_cell_angle_alpha                       60.5898028586
_cell_angle_beta                        60.5898883261
_cell_angle_gamma                       60.5896806411
_chemical_name_systematic               'Generated by pymatgen'
_symmetry_Int_Tables_number             1
_chemical_formula_structural            Ba2PrNbO6
_chemical_formula_sum                   'Ba2 Pr1 Nb1 O6'
_cell_volume                            165.311867923
_cell_formula_units_Z                   1
loop_
  _symmetry_equiv_pos_site_id
  _symmetry_equiv_pos_as_xyz
   1  'x, y, z'
 
loop_
  _atom_site_type_symbol
  _atom_site_label
  _atom_site_symmetry_multiplicity
  _atom_site_fract_x
  _atom_site_fract_y
  _atom_site_fract_z
  _atom_site_attached_hydrogens
  _atom_site_B_iso_or_equiv
  _atom_site_occupancy
   O  O1  1  0.787656  0.672347  0.273992  0  .  1
   Ba  Ba2  1  0.250786  0.250786  0.250791  0  .  1
   O  O3  1  0.273982  0.787655  0.672347  0  .  1
   O  O4  1  0.672341  0.273980  0.787662  0  .  1
   O  O5  1  0.212343  0.327659  0.725997  0  .  1
   Ba  Ba6  1  0.749208  0.749214  0.749209  0  .  1
   Pr  Pr7  1  1.000005  -0.000000  0.999999  0  .  1
   O  O8  1  0.327656  0.726019  0.212345  0  .  1
   Nb  Nb9  1  0.500009  0.499995  0.500004  0  .  1
   O  O10  1  0.726015  0.212346  0.327653  0  .  1
 
