#\#CIF1.1
##########################################################################
#               Crystallographic Information Format file 
#               Produced by PyCifRW module
# 
#  This is a CIF file.  CIF has been adopted by the International
#  Union of Crystallography as the standard for data archiving and 
#  transmission.
#
#  For information on this file format, follow the CIF links at
#  http://www.iucr.org
##########################################################################

data_Ba2TiO4
_symmetry_space_group_name_H-M          'P 1'
_cell_length_a                          3.98182022
_cell_length_b                          3.98228615
_cell_length_c                          8.78815072
_cell_angle_alpha                       90.0
_cell_angle_beta                        90.0
_cell_angle_gamma                       90.0
_chemical_name_systematic               'Generated by pymatgen'
_symmetry_Int_Tables_number             1
_chemical_formula_structural            Ba2TiO4
_chemical_formula_sum                   'Ba2 Ti1 O4'
_cell_volume                            139.351487081
_cell_formula_units_Z                   1
loop_
  _symmetry_equiv_pos_site_id
  _symmetry_equiv_pos_as_xyz
   1  'x, y, z'
 
loop_
  _atom_site_type_symbol
  _atom_site_label
  _atom_site_symmetry_multiplicity
  _atom_site_fract_x
  _atom_site_fract_y
  _atom_site_fract_z
  _atom_site_attached_hydrogens
  _atom_site_B_iso_or_equiv
  _atom_site_occupancy
   Ba  Ba1  1  0.994028  0.000000  0.975571  0  .  1
   Ba  Ba2  1  0.994028  0.000000  0.524429  0  .  1
   O  O3  1  0.992618  0.500000  0.750000  0  .  1
   O  O4  1  0.492596  0.500000  0.976617  0  .  1
   O  O5  1  0.492596  0.500000  0.523383  0  .  1
   O  O6  1  0.492947  0.000000  0.750000  0  .  1
   Ti  Ti7  1  0.495188  0.500000  0.750000  0  .  1
 
