#\#CIF1.1
##########################################################################
#               Crystallographic Information Format file 
#               Produced by PyCifRW module
# 
#  This is a CIF file.  CIF has been adopted by the International
#  Union of Crystallography as the standard for data archiving and 
#  transmission.
#
#  For information on this file format, follow the CIF links at
#  http://www.iucr.org
##########################################################################

data_Ba2Ti11O24
_symmetry_space_group_name_H-M          'P 1'
_cell_length_a                          7.3291414965
_cell_length_b                          8.97652954844
_cell_length_c                          7.40645561083
_cell_angle_alpha                       101.900059914
_cell_angle_beta                        92.4496620348
_cell_angle_gamma                       77.9102228803
_chemical_name_systematic               'Generated by pymatgen'
_symmetry_Int_Tables_number             1
_chemical_formula_structural            Ba2Ti11O24
_chemical_formula_sum                   'Ba2 Ti11 O24'
_cell_volume                            466.225327187
_cell_formula_units_Z                   1
loop_
  _symmetry_equiv_pos_site_id
  _symmetry_equiv_pos_as_xyz
   1  'x, y, z'
 
loop_
  _atom_site_type_symbol
  _atom_site_label
  _atom_site_symmetry_multiplicity
  _atom_site_fract_x
  _atom_site_fract_y
  _atom_site_fract_z
  _atom_site_attached_hydrogens
  _atom_site_B_iso_or_equiv
  _atom_site_occupancy
   Ba  Ba1  1  0.997041  0.224491  0.999887  0  .  1
   Ba  Ba2  1  0.981776  0.785761  0.005509  0  .  1
   Ti  Ti3  1  0.526781  0.621809  0.183765  0  .  1
   Ti  Ti4  1  0.522816  0.265923  0.187658  0  .  1
   Ti  Ti5  1  0.809379  0.109975  0.508898  0  .  1
   Ti  Ti6  1  0.822834  0.454231  0.536757  0  .  1
   Ti  Ti7  1  0.811508  0.789081  0.509542  0  .  1
   Ti  Ti8  1  0.193088  0.212233  0.479359  0  .  1
   Ti  Ti9  1  0.197961  0.882557  0.487526  0  .  1
   Ti  Ti10  1  0.191057  0.546172  0.471287  0  .  1
   Ti  Ti11  1  0.478535  0.731973  0.835087  0  .  1
   Ti  Ti12  1  0.494125  0.051481  0.838409  0  .  1
   Ti  Ti13  1  0.479816  0.390044  0.819387  0  .  1
   O  O14  1  0.667555  0.082716  0.029043  0  .  1
   O  O15  1  0.637559  0.400858  0.043693  0  .  1
   O  O16  1  0.654205  0.708553  0.030990  0  .  1
   O  O17  1  0.713229  0.277209  0.371329  0  .  1
   O  O18  1  0.716187  0.942490  0.378886  0  .  1
   O  O19  1  0.706290  0.611850  0.379883  0  .  1
   O  O20  1  0.951774  0.283408  0.645343  0  .  1
   O  O21  1  0.950594  0.614594  0.647347  0  .  1
   O  O22  1  0.951291  0.950724  0.649044  0  .  1
   O  O23  1  0.376826  0.483606  0.291968  0  .  1
   O  O24  1  0.359249  0.800254  0.295936  0  .  1
   O  O25  1  0.359737  0.174828  0.289592  0  .  1
   O  O26  1  0.621901  0.185559  0.701024  0  .  1
   O  O27  1  0.616066  0.509669  0.701663  0  .  1
   O  O28  1  0.631594  0.844584  0.714924  0  .  1
   O  O29  1  0.048782  0.050306  0.357402  0  .  1
   O  O30  1  0.043459  0.387513  0.359378  0  .  1
   O  O31  1  0.042736  0.716679  0.360225  0  .  1
   O  O32  1  0.289666  0.717388  0.625967  0  .  1
   O  O33  1  0.298929  0.056365  0.619504  0  .  1
   O  O34  1  0.287702  0.390883  0.628048  0  .  1
   O  O35  1  0.343928  0.934333  0.929044  0  .  1
   O  O36  1  0.355261  0.262117  0.950413  0  .  1
   O  O37  1  0.350818  0.603524  0.952777  0  .  1
 
