#\#CIF1.1
##########################################################################
#               Crystallographic Information Format file 
#               Produced by PyCifRW module
# 
#  This is a CIF file.  CIF has been adopted by the International
#  Union of Crystallography as the standard for data archiving and 
#  transmission.
#
#  For information on this file format, follow the CIF links at
#  http://www.iucr.org
##########################################################################

data_Ba2Ti6O13
_symmetry_space_group_name_H-M          'P 1'
_cell_length_a                          3.987348
_cell_length_b                          7.81701396657
_cell_length_c                          9.18606208
_cell_angle_alpha                       97.8391133843
_cell_angle_beta                        90.0
_cell_angle_gamma                       104.776127863
_chemical_name_systematic               'Generated by pymatgen'
_symmetry_Int_Tables_number             1
_chemical_formula_structural            Ba2Ti6O13
_chemical_formula_sum                   'Ba2 Ti6 O13'
_cell_volume                            274.084946841
_cell_formula_units_Z                   1
loop_
  _symmetry_equiv_pos_site_id
  _symmetry_equiv_pos_as_xyz
   1  'x, y, z'
 
loop_
  _atom_site_type_symbol
  _atom_site_label
  _atom_site_symmetry_multiplicity
  _atom_site_fract_x
  _atom_site_fract_y
  _atom_site_fract_z
  _atom_site_attached_hydrogens
  _atom_site_B_iso_or_equiv
  _atom_site_occupancy
   O  O1  1  0.500000  0.000000  0.000000  0  .  1
   O  O2  1  0.571866  0.143731  0.302570  0  .  1
   O  O3  1  0.428134  0.856269  0.697430  0  .  1
   O  O4  1  0.630688  0.261376  0.621461  0  .  1
   O  O5  1  0.369312  0.738624  0.378539  0  .  1
   O  O6  1  0.673428  0.346857  0.919200  0  .  1
   O  O7  1  0.326572  0.653143  0.080800  0  .  1
   O  O8  1  0.801065  0.602130  0.569358  0  .  1
   O  O9  1  0.126063  0.252127  0.112065  0  .  1
   O  O10  1  0.873937  0.747873  0.887935  0  .  1
   O  O11  1  0.742145  0.484290  0.244361  0  .  1
   O  O12  1  0.257855  0.515710  0.755639  0  .  1
   O  O13  1  0.198935  0.397870  0.430642  0  .  1
   Ti  Ti14  1  0.330897  0.661795  0.555591  0  .  1
   Ti  Ti15  1  0.669103  0.338205  0.444409  0  .  1
   Ti  Ti16  1  0.748392  0.496784  0.776852  0  .  1
   Ti  Ti17  1  0.251608  0.503216  0.223148  0  .  1
   Ti  Ti18  1  0.377694  0.755387  0.900594  0  .  1
   Ti  Ti19  1  0.622306  0.244613  0.099406  0  .  1
   Ba  Ba20  1  0.948615  0.897230  0.220931  0  .  1
   Ba  Ba21  1  0.051385  0.102770  0.779069  0  .  1
 
