#\#CIF1.1
##########################################################################
#               Crystallographic Information Format file 
#               Produced by PyCifRW module
# 
#  This is a CIF file.  CIF has been adopted by the International
#  Union of Crystallography as the standard for data archiving and 
#  transmission.
#
#  For information on this file format, follow the CIF links at
#  http://www.iucr.org
##########################################################################

data_Ba2ZnS3
_symmetry_space_group_name_H-M          'P 1'
_cell_length_a                          4.25876491
_cell_length_b                          12.17068149
_cell_length_c                          12.75156397
_cell_angle_alpha                       90.0
_cell_angle_beta                        90.0
_cell_angle_gamma                       90.0
_chemical_name_systematic               'Generated by pymatgen'
_symmetry_Int_Tables_number             1
_chemical_formula_structural            Ba2ZnS3
_chemical_formula_sum                   'Ba8 Zn4 S12'
_cell_volume                            660.939972375
_cell_formula_units_Z                   4
loop_
  _symmetry_equiv_pos_site_id
  _symmetry_equiv_pos_as_xyz
   1  'x, y, z'
 
loop_
  _atom_site_type_symbol
  _atom_site_label
  _atom_site_symmetry_multiplicity
  _atom_site_fract_x
  _atom_site_fract_y
  _atom_site_fract_z
  _atom_site_attached_hydrogens
  _atom_site_B_iso_or_equiv
  _atom_site_occupancy
   S  S1  1  0.750000  0.939627  0.360089  0  .  1
   S  S2  1  0.750000  0.439627  0.139911  0  .  1
   S  S3  1  0.250000  0.060373  0.639911  0  .  1
   S  S4  1  0.250000  0.560373  0.860089  0  .  1
   S  S5  1  0.250000  0.225113  0.292525  0  .  1
   S  S6  1  0.750000  0.774887  0.707475  0  .  1
   S  S7  1  0.250000  0.725113  0.207475  0  .  1
   S  S8  1  0.750000  0.274887  0.792525  0  .  1
   S  S9  1  0.750000  0.635290  0.445680  0  .  1
   S  S10  1  0.250000  0.364710  0.554320  0  .  1
   S  S11  1  0.750000  0.135290  0.054320  0  .  1
   S  S12  1  0.250000  0.864710  0.945680  0  .  1
   Zn  Zn13  1  0.250000  0.744639  0.802950  0  .  1
   Zn  Zn14  1  0.250000  0.244639  0.697050  0  .  1
   Zn  Zn15  1  0.750000  0.255361  0.197050  0  .  1
   Zn  Zn16  1  0.750000  0.755361  0.302950  0  .  1
   Ba  Ba17  1  0.250000  0.490100  0.324809  0  .  1
   Ba  Ba18  1  0.750000  0.509900  0.675191  0  .  1
   Ba  Ba19  1  0.250000  0.990100  0.175191  0  .  1
   Ba  Ba20  1  0.750000  0.009900  0.824809  0  .  1
   Ba  Ba21  1  0.250000  0.826297  0.516943  0  .  1
   Ba  Ba22  1  0.750000  0.173703  0.483057  0  .  1
   Ba  Ba23  1  0.250000  0.326297  0.983057  0  .  1
   Ba  Ba24  1  0.750000  0.673703  0.016943  0  .  1
 
