#\#CIF1.1
##########################################################################
#               Crystallographic Information Format file 
#               Produced by PyCifRW module
# 
#  This is a CIF file.  CIF has been adopted by the International
#  Union of Crystallography as the standard for data archiving and 
#  transmission.
#
#  For information on this file format, follow the CIF links at
#  http://www.iucr.org
##########################################################################

data_Ba3(CrS3)2
_symmetry_space_group_name_H-M          'P 1'
_cell_length_a                          8.12930360622
_cell_length_b                          8.1293036023
_cell_length_c                          8.12930359989
_cell_angle_alpha                       94.4818439068
_cell_angle_beta                        94.4818439148
_cell_angle_gamma                       94.4818438915
_chemical_name_systematic               'Generated by pymatgen'
_symmetry_Int_Tables_number             1
_chemical_formula_structural            Ba3(CrS3)2
_chemical_formula_sum                   'Ba6 Cr4 S12'
_cell_volume                            532.027406199
_cell_formula_units_Z                   2
loop_
  _symmetry_equiv_pos_site_id
  _symmetry_equiv_pos_as_xyz
   1  'x, y, z'
 
loop_
  _atom_site_type_symbol
  _atom_site_label
  _atom_site_symmetry_multiplicity
  _atom_site_fract_x
  _atom_site_fract_y
  _atom_site_fract_z
  _atom_site_attached_hydrogens
  _atom_site_B_iso_or_equiv
  _atom_site_occupancy
   S  S1  1  0.908681  0.017616  0.709554  0  .  1
   S  S2  1  0.017616  0.709554  0.908681  0  .  1
   S  S3  1  0.709554  0.908681  0.017616  0  .  1
   S  S4  1  0.790446  0.482384  0.591319  0  .  1
   S  S5  1  0.482384  0.591319  0.790446  0  .  1
   S  S6  1  0.591319  0.790446  0.482384  0  .  1
   S  S7  1  0.091319  0.982384  0.290446  0  .  1
   S  S8  1  0.982384  0.290446  0.091319  0  .  1
   S  S9  1  0.290446  0.091319  0.982384  0  .  1
   S  S10  1  0.209554  0.517616  0.408681  0  .  1
   S  S11  1  0.408681  0.209554  0.517616  0  .  1
   S  S12  1  0.517616  0.408681  0.209554  0  .  1
   Cr  Cr13  1  0.000000  0.000000  0.000000  0  .  1
   Cr  Cr14  1  0.500000  0.500000  0.500000  0  .  1
   Cr  Cr15  1  0.750000  0.750000  0.750000  0  .  1
   Cr  Cr16  1  0.250000  0.250000  0.250000  0  .  1
   Ba  Ba17  1  0.250000  0.865004  0.634996  0  .  1
   Ba  Ba18  1  0.865004  0.634996  0.250000  0  .  1
   Ba  Ba19  1  0.634996  0.250000  0.865004  0  .  1
   Ba  Ba20  1  0.750000  0.134996  0.365004  0  .  1
   Ba  Ba21  1  0.134996  0.365004  0.750000  0  .  1
   Ba  Ba22  1  0.365004  0.750000  0.134996  0  .  1
 
