#\#CIF1.1
##########################################################################
#               Crystallographic Information Format file 
#               Produced by PyCifRW module
# 
#  This is a CIF file.  CIF has been adopted by the International
#  Union of Crystallography as the standard for data archiving and 
#  transmission.
#
#  For information on this file format, follow the CIF links at
#  http://www.iucr.org
##########################################################################

data_Ba3Co10O17
_symmetry_space_group_name_H-M          'P 1'
_cell_length_a                          12.5759574127
_cell_length_b                          12.5759575673
_cell_length_c                          12.575957078
_cell_angle_alpha                       26.3036869673
_cell_angle_beta                        26.3036855552
_cell_angle_gamma                       26.3036850628
_chemical_name_systematic               'Generated by pymatgen'
_symmetry_Int_Tables_number             1
_chemical_formula_structural            Ba3Co10O17
_chemical_formula_sum                   'Ba3 Co10 O17'
_cell_volume                            344.166784966
_cell_formula_units_Z                   1
loop_
  _symmetry_equiv_pos_site_id
  _symmetry_equiv_pos_as_xyz
   1  'x, y, z'
 
loop_
  _atom_site_type_symbol
  _atom_site_label
  _atom_site_symmetry_multiplicity
  _atom_site_fract_x
  _atom_site_fract_y
  _atom_site_fract_z
  _atom_site_attached_hydrogens
  _atom_site_B_iso_or_equiv
  _atom_site_occupancy
   Ba  Ba1  1  0.601532  0.601532  0.601532  0  .  1
   Ba  Ba2  1  0.398468  0.398468  0.398468  0  .  1
   Ba  Ba3  1  0.000000  0.000000  0.000000  0  .  1
   Co  Co4  1  0.500000  0.000000  0.000000  0  .  1
   Co  Co5  1  0.768155  0.768155  0.768155  0  .  1
   Co  Co6  1  0.304630  0.304630  0.304630  0  .  1
   Co  Co7  1  0.695370  0.695370  0.695370  0  .  1
   Co  Co8  1  0.231845  0.231845  0.231845  0  .  1
   Co  Co9  1  0.000000  0.000000  0.500000  0  .  1
   Co  Co10  1  0.088108  0.088108  0.088108  0  .  1
   Co  Co11  1  0.911892  0.911892  0.911892  0  .  1
   Co  Co12  1  0.000000  0.500000  0.000000  0  .  1
   Co  Co13  1  0.500000  0.500000  0.500000  0  .  1
   O  O14  1  0.352570  0.352570  0.883275  0  .  1
   O  O15  1  0.140544  0.140544  0.140544  0  .  1
   O  O16  1  0.647430  0.647430  0.116725  0  .  1
   O  O17  1  0.647430  0.116725  0.647430  0  .  1
   O  O18  1  0.883275  0.352570  0.352570  0  .  1
   O  O19  1  0.432124  0.887669  0.887669  0  .  1
   O  O20  1  0.887669  0.887669  0.432124  0  .  1
   O  O21  1  0.500000  0.500000  0.000000  0  .  1
   O  O22  1  0.000000  0.500000  0.500000  0  .  1
   O  O23  1  0.112331  0.112331  0.567876  0  .  1
   O  O24  1  0.567876  0.112331  0.112331  0  .  1
   O  O25  1  0.352570  0.883275  0.352570  0  .  1
   O  O26  1  0.116725  0.647430  0.647430  0  .  1
   O  O27  1  0.887669  0.432124  0.887669  0  .  1
   O  O28  1  0.500000  0.000000  0.500000  0  .  1
   O  O29  1  0.859456  0.859456  0.859456  0  .  1
   O  O30  1  0.112331  0.567876  0.112331  0  .  1
 
