#\#CIF1.1
##########################################################################
#               Crystallographic Information Format file 
#               Produced by PyCifRW module
# 
#  This is a CIF file.  CIF has been adopted by the International
#  Union of Crystallography as the standard for data archiving and 
#  transmission.
#
#  For information on this file format, follow the CIF links at
#  http://www.iucr.org
##########################################################################

data_Ba3FeO5
_symmetry_space_group_name_H-M          'P 1'
_cell_length_a                          7.39538621
_cell_length_b                          8.4084322
_cell_length_c                          10.56743231
_cell_angle_alpha                       90.0
_cell_angle_beta                        90.0
_cell_angle_gamma                       90.0
_chemical_name_systematic               'Generated by pymatgen'
_symmetry_Int_Tables_number             1
_chemical_formula_structural            Ba3FeO5
_chemical_formula_sum                   'Ba12 Fe4 O20'
_cell_volume                            657.121021197
_cell_formula_units_Z                   4
loop_
  _symmetry_equiv_pos_site_id
  _symmetry_equiv_pos_as_xyz
   1  'x, y, z'
 
loop_
  _atom_site_type_symbol
  _atom_site_label
  _atom_site_symmetry_multiplicity
  _atom_site_fract_x
  _atom_site_fract_y
  _atom_site_fract_z
  _atom_site_attached_hydrogens
  _atom_site_B_iso_or_equiv
  _atom_site_occupancy
   O  O1  1  0.835725  0.250000  0.278798  0  .  1
   O  O2  1  0.335726  0.750000  0.221202  0  .  1
   O  O3  1  0.164274  0.750000  0.721202  0  .  1
   O  O4  1  0.664274  0.250000  0.778798  0  .  1
   O  O5  1  0.510652  0.250000  0.502197  0  .  1
   O  O6  1  0.010651  0.750000  0.997803  0  .  1
   O  O7  1  0.489349  0.750000  0.497803  0  .  1
   O  O8  1  0.989349  0.250000  0.002198  0  .  1
   O  O9  1  0.297563  0.055378  0.936909  0  .  1
   O  O10  1  0.797563  0.944622  0.563091  0  .  1
   O  O11  1  0.702436  0.555377  0.063091  0  .  1
   O  O12  1  0.202436  0.444623  0.436909  0  .  1
   O  O13  1  0.702436  0.944622  0.063091  0  .  1
   O  O14  1  0.202436  0.055378  0.436909  0  .  1
   O  O15  1  0.297563  0.444623  0.936909  0  .  1
   O  O16  1  0.797563  0.555377  0.563091  0  .  1
   O  O17  1  0.147179  0.250000  0.731827  0  .  1
   O  O18  1  0.647179  0.750000  0.768173  0  .  1
   O  O19  1  0.352822  0.250000  0.231828  0  .  1
   O  O20  1  0.852820  0.750000  0.268172  0  .  1
   Fe  Fe21  1  0.303915  0.250000  0.405924  0  .  1
   Fe  Fe22  1  0.803914  0.750000  0.094076  0  .  1
   Fe  Fe23  1  0.696085  0.750000  0.594076  0  .  1
   Fe  Fe24  1  0.196085  0.250000  0.905924  0  .  1
   Ba  Ba25  1  0.416637  0.025505  0.679796  0  .  1
   Ba  Ba26  1  0.114936  0.750000  0.471748  0  .  1
   Ba  Ba27  1  0.385064  0.750000  0.971748  0  .  1
   Ba  Ba28  1  0.885064  0.250000  0.528252  0  .  1
   Ba  Ba29  1  0.614936  0.250000  0.028252  0  .  1
   Ba  Ba30  1  0.916637  0.974494  0.820204  0  .  1
   Ba  Ba31  1  0.583364  0.525505  0.320204  0  .  1
   Ba  Ba32  1  0.083363  0.474495  0.179796  0  .  1
   Ba  Ba33  1  0.583364  0.974494  0.320204  0  .  1
   Ba  Ba34  1  0.083363  0.025505  0.179796  0  .  1
   Ba  Ba35  1  0.416637  0.474495  0.679796  0  .  1
   Ba  Ba36  1  0.916637  0.525505  0.820204  0  .  1
 
