#\#CIF1.1
##########################################################################
#               Crystallographic Information Format file 
#               Produced by PyCifRW module
# 
#  This is a CIF file.  CIF has been adopted by the International
#  Union of Crystallography as the standard for data archiving and 
#  transmission.
#
#  For information on this file format, follow the CIF links at
#  http://www.iucr.org
##########################################################################

data_Ba3Fe3O8
_symmetry_space_group_name_H-M          'P 1'
_cell_length_a                          5.85804144011
_cell_length_b                          5.85804035761
_cell_length_c                          14.1587924608
_cell_angle_alpha                       90.0009529913
_cell_angle_beta                        89.9990262815
_cell_angle_gamma                       120.774631705
_chemical_name_systematic               'Generated by pymatgen'
_symmetry_Int_Tables_number             1
_chemical_formula_structural            Ba3Fe3O8
_chemical_formula_sum                   'Ba6 Fe6 O16'
_cell_volume                            417.463463485
_cell_formula_units_Z                   2
loop_
  _symmetry_equiv_pos_site_id
  _symmetry_equiv_pos_as_xyz
   1  'x, y, z'
 
loop_
  _atom_site_type_symbol
  _atom_site_label
  _atom_site_symmetry_multiplicity
  _atom_site_fract_x
  _atom_site_fract_y
  _atom_site_fract_z
  _atom_site_attached_hydrogens
  _atom_site_B_iso_or_equiv
  _atom_site_occupancy
   Ba  Ba1  1  0.331683  0.668335  0.102543  0  .  1
   Ba  Ba2  1  0.331678  0.668338  0.397439  0  .  1
   Ba  Ba3  1  0.999618  0.000397  0.250020  0  .  1
   Ba  Ba4  1  0.992618  0.007383  0.749993  0  .  1
   Ba  Ba5  1  0.671759  0.328243  0.589314  0  .  1
   Ba  Ba6  1  0.671778  0.328223  0.910647  0  .  1
   Fe  Fe7  1  0.358650  0.641346  0.839745  0  .  1
   Fe  Fe8  1  0.358634  0.641370  0.660299  0  .  1
   Fe  Fe9  1  0.980316  0.019692  0.010702  0  .  1
   Fe  Fe10  1  0.980352  0.019653  0.489313  0  .  1
   Fe  Fe11  1  0.661536  0.338477  0.343660  0  .  1
   Fe  Fe12  1  0.661535  0.338479  0.156374  0  .  1
   O  O13  1  0.044215  0.519305  0.750003  0  .  1
   O  O14  1  0.159806  0.328138  0.581778  0  .  1
   O  O15  1  0.159709  0.328124  0.918258  0  .  1
   O  O16  1  0.480696  0.955786  0.750002  0  .  1
   O  O17  1  0.505747  0.494260  0.750026  0  .  1
   O  O18  1  0.326488  0.153002  0.070121  0  .  1
   O  O19  1  0.326587  0.153053  0.429872  0  .  1
   O  O20  1  0.671860  0.840197  0.581776  0  .  1
   O  O21  1  0.671855  0.840288  0.918264  0  .  1
   O  O22  1  0.509339  0.490673  0.249859  0  .  1
   O  O23  1  0.502491  0.034691  0.250001  0  .  1
   O  O24  1  0.847021  0.673527  0.070119  0  .  1
   O  O25  1  0.846948  0.673420  0.429870  0  .  1
   O  O26  1  0.965325  0.497527  0.249999  0  .  1
   O  O27  1  0.826925  0.173093  0.415492  0  .  1
   O  O28  1  0.826829  0.173184  0.084511  0  .  1
 
