#\#CIF1.1
##########################################################################
#               Crystallographic Information Format file 
#               Produced by PyCifRW module
# 
#  This is a CIF file.  CIF has been adopted by the International
#  Union of Crystallography as the standard for data archiving and 
#  transmission.
#
#  For information on this file format, follow the CIF links at
#  http://www.iucr.org
##########################################################################

data_Ba3Mn2O8
_symmetry_space_group_name_H-M          'P 1'
_cell_length_a                          7.98857309236
_cell_length_b                          7.98857308735
_cell_length_c                          7.9885730869
_cell_angle_alpha                       42.6393337514
_cell_angle_beta                        42.6393337996
_cell_angle_gamma                       42.6393337683
_chemical_name_systematic               'Generated by pymatgen'
_symmetry_Int_Tables_number             1
_chemical_formula_structural            Ba3Mn2O8
_chemical_formula_sum                   'Ba3 Mn2 O8'
_cell_volume                            211.873065356
_cell_formula_units_Z                   1
loop_
  _symmetry_equiv_pos_site_id
  _symmetry_equiv_pos_as_xyz
   1  'x, y, z'
 
loop_
  _atom_site_type_symbol
  _atom_site_label
  _atom_site_symmetry_multiplicity
  _atom_site_fract_x
  _atom_site_fract_y
  _atom_site_fract_z
  _atom_site_attached_hydrogens
  _atom_site_B_iso_or_equiv
  _atom_site_occupancy
   O  O1  1  0.670956  0.670956  0.670956  0  .  1
   O  O2  1  0.329044  0.329044  0.329044  0  .  1
   O  O3  1  0.273160  0.756697  0.273160  0  .  1
   O  O4  1  0.756697  0.273160  0.273160  0  .  1
   O  O5  1  0.273160  0.273160  0.756697  0  .  1
   O  O6  1  0.726840  0.726840  0.243303  0  .  1
   O  O7  1  0.243303  0.726840  0.726840  0  .  1
   O  O8  1  0.726840  0.243303  0.726840  0  .  1
   Mn  Mn9  1  0.592792  0.592792  0.592792  0  .  1
   Mn  Mn10  1  0.407208  0.407208  0.407208  0  .  1
   Ba  Ba11  1  0.792483  0.792483  0.792483  0  .  1
   Ba  Ba12  1  0.207517  0.207517  0.207517  0  .  1
   Ba  Ba13  1  0.000000  0.000000  0.000000  0  .  1
 
