#\#CIF1.1
##########################################################################
#               Crystallographic Information Format file 
#               Produced by PyCifRW module
# 
#  This is a CIF file.  CIF has been adopted by the International
#  Union of Crystallography as the standard for data archiving and 
#  transmission.
#
#  For information on this file format, follow the CIF links at
#  http://www.iucr.org
##########################################################################

data_Ba3NiO4
_symmetry_space_group_name_H-M          'P 1'
_cell_length_a                          7.24463807909
_cell_length_b                          7.24463807705
_cell_length_c                          7.24463808111
_cell_angle_alpha                       66.6191462107
_cell_angle_beta                        66.6191462062
_cell_angle_gamma                       66.6191462338
_chemical_name_systematic               'Generated by pymatgen'
_symmetry_Int_Tables_number             1
_chemical_formula_structural            Ba3NiO4
_chemical_formula_sum                   'Ba6 Ni2 O8'
_cell_volume                            307.152836776
_cell_formula_units_Z                   2
loop_
  _symmetry_equiv_pos_site_id
  _symmetry_equiv_pos_as_xyz
   1  'x, y, z'
 
loop_
  _atom_site_type_symbol
  _atom_site_label
  _atom_site_symmetry_multiplicity
  _atom_site_fract_x
  _atom_site_fract_y
  _atom_site_fract_z
  _atom_site_attached_hydrogens
  _atom_site_B_iso_or_equiv
  _atom_site_occupancy
   O  O1  1  0.750000  0.982753  0.517246  0  .  1
   O  O2  1  0.482753  0.250000  0.017248  0  .  1
   O  O3  1  0.000000  0.000000  0.000000  0  .  1
   O  O4  1  0.500000  0.499999  0.500000  0  .  1
   O  O5  1  0.017247  0.482752  0.250000  0  .  1
   O  O6  1  0.517248  0.749999  0.982752  0  .  1
   O  O7  1  0.250000  0.017247  0.482752  0  .  1
   O  O8  1  0.982752  0.517247  0.750000  0  .  1
   Ni  Ni9  1  0.750000  0.749999  0.750000  0  .  1
   Ni  Ni10  1  0.250001  0.250000  0.249999  0  .  1
   Ba  Ba11  1  0.750000  0.335091  0.164910  0  .  1
   Ba  Ba12  1  0.164910  0.750000  0.335090  0  .  1
   Ba  Ba13  1  0.250001  0.664910  0.835090  0  .  1
   Ba  Ba14  1  0.664910  0.835090  0.250000  0  .  1
   Ba  Ba15  1  0.835090  0.250000  0.664910  0  .  1
   Ba  Ba16  1  0.335091  0.164909  0.750000  0  .  1
 
