#\#CIF1.1
##########################################################################
#               Crystallographic Information Format file 
#               Produced by PyCifRW module
# 
#  This is a CIF file.  CIF has been adopted by the International
#  Union of Crystallography as the standard for data archiving and 
#  transmission.
#
#  For information on this file format, follow the CIF links at
#  http://www.iucr.org
##########################################################################

data_Ba3Ti2O7
_symmetry_space_group_name_H-M          'P 1'
_cell_length_a                          4.07065008194
_cell_length_b                          11.1077620846
_cell_length_c                          5.76710750832
_cell_angle_alpha                       90.0258430358
_cell_angle_beta                        44.8872403244
_cell_angle_gamma                       100.539104174
_chemical_name_systematic               'Generated by pymatgen'
_symmetry_Int_Tables_number             1
_chemical_formula_structural            Ba3Ti2O7
_chemical_formula_sum                   'Ba3 Ti2 O7'
_cell_volume                            177.759106706
_cell_formula_units_Z                   1
loop_
  _symmetry_equiv_pos_site_id
  _symmetry_equiv_pos_as_xyz
   1  'x, y, z'
 
loop_
  _atom_site_type_symbol
  _atom_site_label
  _atom_site_symmetry_multiplicity
  _atom_site_fract_x
  _atom_site_fract_y
  _atom_site_fract_z
  _atom_site_attached_hydrogens
  _atom_site_B_iso_or_equiv
  _atom_site_occupancy
   Ba  Ba1  1  0.134940  0.633739  0.927657  0  .  1
   Ba  Ba2  1  0.500797  0.000003  0.743062  0  .  1
   Ba  Ba3  1  0.868209  0.366546  0.561611  0  .  1
   Ti  Ti4  1  0.310295  0.809594  0.324400  0  .  1
   Ti  Ti5  1  0.691901  0.190458  0.133996  0  .  1
   O  O6  1  0.129177  0.627795  0.439807  0  .  1
   O  O7  1  0.822840  0.811054  0.346433  0  .  1
   O  O8  1  0.180002  0.189103  0.668818  0  .  1
   O  O9  1  0.200239  0.189119  0.158706  0  .  1
   O  O10  1  0.801718  0.811078  0.856909  0  .  1
   O  O11  1  0.501072  0.000023  0.254793  0  .  1
   O  O12  1  0.874212  0.372414  0.067992  0  .  1
 
