#\#CIF1.1
##########################################################################
#               Crystallographic Information Format file 
#               Produced by PyCifRW module
# 
#  This is a CIF file.  CIF has been adopted by the International
#  Union of Crystallography as the standard for data archiving and 
#  transmission.
#
#  For information on this file format, follow the CIF links at
#  http://www.iucr.org
##########################################################################

data_Ba3Ti20O40
_symmetry_space_group_name_H-M          'P 1'
_cell_length_a                          10.1172719298
_cell_length_b                          10.3449398821
_cell_length_c                          10.3449401049
_cell_angle_alpha                       92.1630653751
_cell_angle_beta                        118.750862711
_cell_angle_gamma                       118.750868133
_chemical_name_systematic               'Generated by pymatgen'
_symmetry_Int_Tables_number             1
_chemical_formula_structural            Ba3Ti20O40
_chemical_formula_sum                   'Ba3 Ti20 O40'
_cell_volume                            779.552582353
_cell_formula_units_Z                   1
loop_
  _symmetry_equiv_pos_site_id
  _symmetry_equiv_pos_as_xyz
   1  'x, y, z'
 
loop_
  _atom_site_type_symbol
  _atom_site_label
  _atom_site_symmetry_multiplicity
  _atom_site_fract_x
  _atom_site_fract_y
  _atom_site_fract_z
  _atom_site_attached_hydrogens
  _atom_site_B_iso_or_equiv
  _atom_site_occupancy
   Ba  Ba1  1  0.000000  0.365083  0.634917  0  .  1
   Ba  Ba2  1  1.000000  0.634917  0.365083  0  .  1
   Ba  Ba3  1  0.000000  0.000000  0.000000  0  .  1
   O  O4  1  0.283463  0.962278  0.962278  0  .  1
   O  O5  1  0.051408  0.502526  0.903298  0  .  1
   O  O6  1  0.051408  0.903298  0.502526  0  .  1
   O  O7  1  0.051706  0.698252  0.698252  0  .  1
   O  O8  1  0.380619  0.739073  0.942006  0  .  1
   O  O9  1  0.380619  0.942006  0.739073  0  .  1
   O  O10  1  0.347326  0.654346  0.654346  0  .  1
   O  O11  1  0.354866  0.858713  0.458046  0  .  1
   O  O12  1  0.354866  0.458046  0.858713  0  .  1
   O  O13  1  0.643237  0.742810  0.939159  0  .  1
   O  O14  1  0.643237  0.939159  0.742810  0  .  1
   O  O15  1  0.280154  0.357129  0.561926  0  .  1
   O  O16  1  0.280154  0.561926  0.357129  0  .  1
   O  O17  1  0.286060  0.757227  0.158670  0  .  1
   O  O18  1  0.286060  0.158670  0.757227  0  .  1
   O  O19  1  0.052080  0.302382  0.106533  0  .  1
   O  O20  1  0.052080  0.106533  0.302382  0  .  1
   O  O21  1  0.614550  0.455370  0.856491  0  .  1
   O  O22  1  0.614550  0.856491  0.455370  0  .  1
   O  O23  1  0.621078  0.657387  0.657387  0  .  1
   O  O24  1  0.378922  0.342613  0.342613  0  .  1
   O  O25  1  0.385450  0.143509  0.544630  0  .  1
   O  O26  1  0.385450  0.544630  0.143509  0  .  1
   O  O27  1  0.947920  0.893467  0.697618  0  .  1
   O  O28  1  0.947920  0.697618  0.893467  0  .  1
   O  O29  1  0.713940  0.841330  0.242773  0  .  1
   O  O30  1  0.713940  0.242773  0.841330  0  .  1
   O  O31  1  0.719846  0.642871  0.438074  0  .  1
   O  O32  1  0.719846  0.438074  0.642871  0  .  1
   O  O33  1  0.356763  0.060841  0.257190  0  .  1
   O  O34  1  0.356763  0.257190  0.060841  0  .  1
   O  O35  1  0.645134  0.541954  0.141287  0  .  1
   O  O36  1  0.645134  0.141287  0.541954  0  .  1
   O  O37  1  0.652674  0.345654  0.345654  0  .  1
   O  O38  1  0.619381  0.057994  0.260927  0  .  1
   O  O39  1  0.619381  0.260927  0.057994  0  .  1
   O  O40  1  0.948294  0.301748  0.301748  0  .  1
   O  O41  1  0.948592  0.096702  0.497474  0  .  1
   O  O42  1  0.948592  0.497474  0.096702  0  .  1
   O  O43  1  0.716537  0.037722  0.037722  0  .  1
   Ti  Ti44  1  0.183435  0.934606  0.737773  0  .  1
   Ti  Ti45  1  0.183435  0.737773  0.934606  0  .  1
   Ti  Ti46  1  0.507964  0.846510  0.846510  0  .  1
   Ti  Ti47  1  0.466829  0.942006  0.343764  0  .  1
   Ti  Ti48  1  0.466829  0.343764  0.942006  0  .  1
   Ti  Ti49  1  0.183307  0.342198  0.342198  0  .  1
   Ti  Ti50  1  0.482518  0.747421  0.550326  0  .  1
   Ti  Ti51  1  0.482518  0.550326  0.747421  0  .  1
   Ti  Ti52  1  0.181022  0.528075  0.126702  0  .  1
   Ti  Ti53  1  0.181022  0.126702  0.528075  0  .  1
   Ti  Ti54  1  0.818978  0.873298  0.471925  0  .  1
   Ti  Ti55  1  0.818978  0.471925  0.873298  0  .  1
   Ti  Ti56  1  0.517482  0.449674  0.252579  0  .  1
   Ti  Ti57  1  0.517482  0.252579  0.449674  0  .  1
   Ti  Ti58  1  0.816693  0.657802  0.657802  0  .  1
   Ti  Ti59  1  0.533171  0.656236  0.057994  0  .  1
   Ti  Ti60  1  0.533171  0.057994  0.656236  0  .  1
   Ti  Ti61  1  0.492036  0.153490  0.153490  0  .  1
   Ti  Ti62  1  0.816565  0.262227  0.065394  0  .  1
   Ti  Ti63  1  0.816565  0.065394  0.262227  0  .  1
 
