#\#CIF1.1
##########################################################################
#               Crystallographic Information Format file 
#               Produced by PyCifRW module
# 
#  This is a CIF file.  CIF has been adopted by the International
#  Union of Crystallography as the standard for data archiving and 
#  transmission.
#
#  For information on this file format, follow the CIF links at
#  http://www.iucr.org
##########################################################################

data_Ba3V4O13
_symmetry_space_group_name_H-M          'P 1'
_cell_length_a                          9.1075315
_cell_length_b                          9.29444355416
_cell_length_c                          10.4347234383
_cell_angle_alpha                       109.045193096
_cell_angle_beta                        90.0
_cell_angle_gamma                       119.336963841
_chemical_name_systematic               'Generated by pymatgen'
_symmetry_Int_Tables_number             1
_chemical_formula_structural            Ba3V4O13
_chemical_formula_sum                   'Ba6 V8 O26'
_cell_volume                            714.03403559
_cell_formula_units_Z                   2
loop_
  _symmetry_equiv_pos_site_id
  _symmetry_equiv_pos_as_xyz
   1  'x, y, z'
 
loop_
  _atom_site_type_symbol
  _atom_site_label
  _atom_site_symmetry_multiplicity
  _atom_site_fract_x
  _atom_site_fract_y
  _atom_site_fract_z
  _atom_site_attached_hydrogens
  _atom_site_B_iso_or_equiv
  _atom_site_occupancy
   O  O1  1  0.567538  0.000000  0.750000  0  .  1
   O  O2  1  0.432462  0.000000  0.250000  0  .  1
   O  O3  1  0.279104  0.289402  0.166307  0  .  1
   O  O4  1  0.989704  0.710598  0.333693  0  .  1
   O  O5  1  0.720896  0.710598  0.833692  0  .  1
   O  O6  1  0.010297  0.289401  0.666307  0  .  1
   O  O7  1  0.142646  0.956636  0.960551  0  .  1
   O  O8  1  0.186010  0.043364  0.539449  0  .  1
   O  O9  1  0.857354  0.043364  0.039449  0  .  1
   O  O10  1  0.813990  0.956636  0.460551  0  .  1
   O  O11  1  0.215387  0.248248  0.887333  0  .  1
   O  O12  1  0.967138  0.751751  0.612666  0  .  1
   O  O13  1  0.784614  0.751751  0.112667  0  .  1
   O  O14  1  0.032862  0.248249  0.387334  0  .  1
   O  O15  1  0.728684  0.230896  0.494601  0  .  1
   O  O16  1  0.497789  0.769104  0.005399  0  .  1
   O  O17  1  0.271315  0.769104  0.505398  0  .  1
   O  O18  1  0.502211  0.230896  0.994601  0  .  1
   O  O19  1  0.487759  0.326367  0.436200  0  .  1
   O  O20  1  0.161392  0.673633  0.063800  0  .  1
   O  O21  1  0.616743  0.336486  0.771365  0  .  1
   O  O22  1  0.838607  0.326367  0.936200  0  .  1
   O  O23  1  0.719743  0.336486  0.271364  0  .  1
   O  O24  1  0.383257  0.663513  0.228635  0  .  1
   O  O25  1  0.280257  0.663514  0.728636  0  .  1
   O  O26  1  0.512241  0.673634  0.563800  0  .  1
   V  V27  1  0.629418  0.224629  0.864884  0  .  1
   V  V28  1  0.404788  0.775370  0.635116  0  .  1
   V  V29  1  0.370582  0.775371  0.135115  0  .  1
   V  V30  1  0.595211  0.224630  0.364884  0  .  1
   V  V31  1  0.279717  0.179064  0.998262  0  .  1
   V  V32  1  0.100655  0.820936  0.501738  0  .  1
   V  V33  1  0.720282  0.820936  0.001738  0  .  1
   V  V34  1  0.899345  0.179063  0.498262  0  .  1
   Ba  Ba35  1  0.110983  0.000000  0.250000  0  .  1
   Ba  Ba36  1  0.889016  0.000000  0.750000  0  .  1
   Ba  Ba37  1  0.968614  0.595097  0.809852  0  .  1
   Ba  Ba38  1  0.373517  0.404902  0.690148  0  .  1
   Ba  Ba39  1  0.031386  0.404903  0.190148  0  .  1
   Ba  Ba40  1  0.626483  0.595098  0.309852  0  .  1
 
