#\#CIF1.1
##########################################################################
#               Crystallographic Information Format file 
#               Produced by PyCifRW module
# 
#  This is a CIF file.  CIF has been adopted by the International
#  Union of Crystallography as the standard for data archiving and 
#  transmission.
#
#  For information on this file format, follow the CIF links at
#  http://www.iucr.org
##########################################################################

data_Ba3V2O8
_symmetry_space_group_name_H-M          'P 1'
_cell_length_a                          7.96305040446
_cell_length_b                          7.96305040672
_cell_length_c                          7.96305040897
_cell_angle_alpha                       43.489718271
_cell_angle_beta                        43.4897182405
_cell_angle_gamma                       43.4897182957
_chemical_name_systematic               'Generated by pymatgen'
_symmetry_Int_Tables_number             1
_chemical_formula_structural            Ba3V2O8
_chemical_formula_sum                   'Ba3 V2 O8'
_cell_volume                            216.997820047
_cell_formula_units_Z                   1
loop_
  _symmetry_equiv_pos_site_id
  _symmetry_equiv_pos_as_xyz
   1  'x, y, z'
 
loop_
  _atom_site_type_symbol
  _atom_site_label
  _atom_site_symmetry_multiplicity
  _atom_site_fract_x
  _atom_site_fract_y
  _atom_site_fract_z
  _atom_site_attached_hydrogens
  _atom_site_B_iso_or_equiv
  _atom_site_occupancy
   O  O1  1  0.672787  0.672787  0.672787  0  .  1
   O  O2  1  0.327213  0.327213  0.327213  0  .  1
   O  O3  1  0.242764  0.727053  0.727053  0  .  1
   O  O4  1  0.727053  0.727053  0.242764  0  .  1
   O  O5  1  0.727053  0.242764  0.727053  0  .  1
   O  O6  1  0.757236  0.272947  0.272947  0  .  1
   O  O7  1  0.272947  0.757236  0.272947  0  .  1
   O  O8  1  0.272947  0.272947  0.757236  0  .  1
   V  V9  1  0.592695  0.592695  0.592695  0  .  1
   V  V10  1  0.407305  0.407305  0.407305  0  .  1
   Ba  Ba11  1  0.205269  0.205269  0.205269  0  .  1
   Ba  Ba12  1  0.794731  0.794731  0.794731  0  .  1
   Ba  Ba13  1  0.000000  0.000000  0.000000  0  .  1
 
