#\#CIF1.1
##########################################################################
#               Crystallographic Information Format file 
#               Produced by PyCifRW module
# 
#  This is a CIF file.  CIF has been adopted by the International
#  Union of Crystallography as the standard for data archiving and 
#  transmission.
#
#  For information on this file format, follow the CIF links at
#  http://www.iucr.org
##########################################################################

data_Ba4Mn3O10
_symmetry_space_group_name_H-M          'P 1'
_cell_length_a                          5.78167427
_cell_length_b                          7.24380770668
_cell_length_c                          13.08278942
_cell_angle_alpha                       90.0
_cell_angle_beta                        90.0
_cell_angle_gamma                       113.52049067
_chemical_name_systematic               'Generated by pymatgen'
_symmetry_Int_Tables_number             1
_chemical_formula_structural            Ba4Mn3O10
_chemical_formula_sum                   'Ba8 Mn6 O20'
_cell_volume                            502.401704652
_cell_formula_units_Z                   2
loop_
  _symmetry_equiv_pos_site_id
  _symmetry_equiv_pos_as_xyz
   1  'x, y, z'
 
loop_
  _atom_site_type_symbol
  _atom_site_label
  _atom_site_symmetry_multiplicity
  _atom_site_fract_x
  _atom_site_fract_y
  _atom_site_fract_z
  _atom_site_attached_hydrogens
  _atom_site_B_iso_or_equiv
  _atom_site_occupancy
   O  O1  1  0.363618  0.227235  0.750000  0  .  1
   O  O2  1  0.136382  0.772765  0.250000  0  .  1
   O  O3  1  0.636382  0.772765  0.250000  0  .  1
   O  O4  1  0.863618  0.227235  0.750000  0  .  1
   O  O5  1  0.176901  0.792753  0.461380  0  .  1
   O  O6  1  0.384147  0.207247  0.538620  0  .  1
   O  O7  1  0.323099  0.207247  0.961380  0  .  1
   O  O8  1  0.115853  0.792753  0.038620  0  .  1
   O  O9  1  0.823099  0.207247  0.538620  0  .  1
   O  O10  1  0.615853  0.792753  0.461380  0  .  1
   O  O11  1  0.676901  0.792753  0.038620  0  .  1
   O  O12  1  0.884147  0.207247  0.961380  0  .  1
   O  O13  1  0.764104  0.528209  0.649952  0  .  1
   O  O14  1  0.235896  0.471791  0.350048  0  .  1
   O  O15  1  0.034087  0.068174  0.143674  0  .  1
   O  O16  1  0.965913  0.931826  0.856326  0  .  1
   O  O17  1  0.465913  0.931826  0.643674  0  .  1
   O  O18  1  0.534087  0.068174  0.356326  0  .  1
   O  O19  1  0.264104  0.528209  0.850048  0  .  1
   O  O20  1  0.735896  0.471791  0.149952  0  .  1
   Mn  Mn21  1  0.625634  0.251268  0.653096  0  .  1
   Mn  Mn22  1  0.374366  0.748732  0.346904  0  .  1
   Mn  Mn23  1  0.874366  0.748732  0.153096  0  .  1
   Mn  Mn24  1  0.125634  0.251268  0.846904  0  .  1
   Mn  Mn25  1  0.500000  0.000000  0.500000  0  .  1
   Mn  Mn26  1  0.000000  0.000000  0.000000  0  .  1
   Ba  Ba27  1  0.756765  0.513529  0.887848  0  .  1
   Ba  Ba28  1  0.243235  0.486471  0.112152  0  .  1
   Ba  Ba29  1  0.743235  0.486471  0.387848  0  .  1
   Ba  Ba30  1  0.256765  0.513529  0.612152  0  .  1
   Ba  Ba31  1  0.963410  0.926820  0.642338  0  .  1
   Ba  Ba32  1  0.036590  0.073180  0.357662  0  .  1
   Ba  Ba33  1  0.536590  0.073180  0.142338  0  .  1
   Ba  Ba34  1  0.463410  0.926820  0.857662  0  .  1
 
