#\#CIF1.1
##########################################################################
#               Crystallographic Information Format file 
#               Produced by PyCifRW module
# 
#  This is a CIF file.  CIF has been adopted by the International
#  Union of Crystallography as the standard for data archiving and 
#  transmission.
#
#  For information on this file format, follow the CIF links at
#  http://www.iucr.org
##########################################################################

data_Ba4NaMn2O9
_symmetry_space_group_name_H-M          'P 1'
_cell_length_a                          10.1757401
_cell_length_b                          10.1757395553
_cell_length_c                          8.40369923
_cell_angle_alpha                       90.0
_cell_angle_beta                        90.0
_cell_angle_gamma                       120.000001771
_chemical_name_systematic               'Generated by pymatgen'
_symmetry_Int_Tables_number             1
_chemical_formula_structural            Ba4NaMn2O9
_chemical_formula_sum                   'Ba12 Na3 Mn6 O27'
_cell_volume                            753.58650627
_cell_formula_units_Z                   3
loop_
  _symmetry_equiv_pos_site_id
  _symmetry_equiv_pos_as_xyz
   1  'x, y, z'
 
loop_
  _atom_site_type_symbol
  _atom_site_label
  _atom_site_symmetry_multiplicity
  _atom_site_fract_x
  _atom_site_fract_y
  _atom_site_fract_z
  _atom_site_attached_hydrogens
  _atom_site_B_iso_or_equiv
  _atom_site_occupancy
   Ba  Ba1  1  0.000000  0.353309  0.500000  0  .  1
   Ba  Ba2  1  0.673665  0.673665  0.000000  0  .  1
   Ba  Ba3  1  0.664160  0.977391  0.245409  0  .  1
   Ba  Ba4  1  1.000000  0.326335  0.000000  0  .  1
   Ba  Ba5  1  0.335840  0.313231  0.754591  0  .  1
   Ba  Ba6  1  0.353309  0.000000  0.500000  0  .  1
   Ba  Ba7  1  0.977391  0.664160  0.754591  0  .  1
   Ba  Ba8  1  0.022609  0.686769  0.245409  0  .  1
   Ba  Ba9  1  0.686769  0.022609  0.754591  0  .  1
   Ba  Ba10  1  0.313231  0.335840  0.245409  0  .  1
   Ba  Ba11  1  0.326335  0.000000  0.000000  0  .  1
   Ba  Ba12  1  0.646691  0.646691  0.500000  0  .  1
   Na  Na13  1  0.666667  0.333333  0.256188  0  .  1
   Na  Na14  1  0.000000  0.000000  0.500000  0  .  1
   Na  Na15  1  0.333333  0.666667  0.743812  0  .  1
   Mn  Mn16  1  0.666667  0.333333  0.595705  0  .  1
   Mn  Mn17  1  0.000000  0.000000  0.840315  0  .  1
   Mn  Mn18  1  0.000000  0.000000  0.159685  0  .  1
   Mn  Mn19  1  0.333333  0.666667  0.404295  0  .  1
   Mn  Mn20  1  0.333333  0.666667  0.085057  0  .  1
   Mn  Mn21  1  0.666667  0.333333  0.914943  0  .  1
   O  O22  1  0.655684  0.475866  0.755716  0  .  1
   O  O23  1  0.854908  0.000000  0.000000  0  .  1
   O  O24  1  0.008560  0.163979  0.719217  0  .  1
   O  O25  1  0.182059  0.678604  0.527583  0  .  1
   O  O26  1  0.508461  0.327277  0.038383  0  .  1
   O  O27  1  0.327277  0.508461  0.961617  0  .  1
   O  O28  1  0.818815  0.491539  0.038383  0  .  1
   O  O29  1  0.524134  0.179818  0.755716  0  .  1
   O  O30  1  0.672723  0.181185  0.038383  0  .  1
   O  O31  1  0.181185  0.672723  0.961617  0  .  1
   O  O32  1  0.503456  0.321396  0.472417  0  .  1
   O  O33  1  0.491539  0.818815  0.961617  0  .  1
   O  O34  1  0.145092  0.145092  0.000000  0  .  1
   O  O35  1  0.344316  0.820182  0.244284  0  .  1
   O  O36  1  0.321396  0.503456  0.527583  0  .  1
   O  O37  1  0.475866  0.655684  0.244284  0  .  1
   O  O38  1  0.817941  0.496544  0.472417  0  .  1
   O  O39  1  0.496544  0.817941  0.527583  0  .  1
   O  O40  1  0.179818  0.524134  0.244284  0  .  1
   O  O41  1  0.991440  0.155419  0.280783  0  .  1
   O  O42  1  0.000000  0.854908  0.000000  0  .  1
   O  O43  1  0.844581  0.836021  0.280783  0  .  1
   O  O44  1  0.163979  0.008560  0.280783  0  .  1
   O  O45  1  0.820182  0.344316  0.755716  0  .  1
   O  O46  1  0.678604  0.182059  0.472417  0  .  1
   O  O47  1  0.155419  0.991440  0.719217  0  .  1
   O  O48  1  0.836021  0.844581  0.719217  0  .  1
 
