#\#CIF1.1
##########################################################################
#               Crystallographic Information Format file 
#               Produced by PyCifRW module
# 
#  This is a CIF file.  CIF has been adopted by the International
#  Union of Crystallography as the standard for data archiving and 
#  transmission.
#
#  For information on this file format, follow the CIF links at
#  http://www.iucr.org
##########################################################################

data_Ba4Ti13O30
_symmetry_space_group_name_H-M          'P 1'
_cell_length_a                          9.97681650324
_cell_length_b                          9.97681648652
_cell_length_c                          14.20742808
_cell_angle_alpha                       90.0
_cell_angle_beta                        90.0
_cell_angle_gamma                       119.965901766
_chemical_name_systematic               'Generated by pymatgen'
_symmetry_Int_Tables_number             1
_chemical_formula_structural            Ba4Ti13O30
_chemical_formula_sum                   'Ba8 Ti26 O60'
_cell_volume                            1225.12156903
_cell_formula_units_Z                   2
loop_
  _symmetry_equiv_pos_site_id
  _symmetry_equiv_pos_as_xyz
   1  'x, y, z'
 
loop_
  _atom_site_type_symbol
  _atom_site_label
  _atom_site_symmetry_multiplicity
  _atom_site_fract_x
  _atom_site_fract_y
  _atom_site_fract_z
  _atom_site_attached_hydrogens
  _atom_site_B_iso_or_equiv
  _atom_site_occupancy
   O  O1  1  0.349571  0.860525  0.068440  0  .  1
   O  O2  1  0.150429  0.639475  0.568440  0  .  1
   O  O3  1  0.360525  0.849571  0.431560  0  .  1
   O  O4  1  0.139475  0.650429  0.931560  0  .  1
   O  O5  1  0.650429  0.139475  0.931560  0  .  1
   O  O6  1  0.849571  0.360525  0.431560  0  .  1
   O  O7  1  0.639475  0.150429  0.568440  0  .  1
   O  O8  1  0.860525  0.349571  0.068440  0  .  1
   O  O9  1  0.685381  0.029760  0.405235  0  .  1
   O  O10  1  0.814619  0.470240  0.905235  0  .  1
   O  O11  1  0.529760  0.185381  0.094765  0  .  1
   O  O12  1  0.970240  0.314619  0.594765  0  .  1
   O  O13  1  0.314619  0.970240  0.594765  0  .  1
   O  O14  1  0.185381  0.529760  0.094765  0  .  1
   O  O15  1  0.470240  0.814619  0.905235  0  .  1
   O  O16  1  0.029760  0.685381  0.405235  0  .  1
   O  O17  1  0.859912  0.859912  0.404276  0  .  1
   O  O18  1  0.640088  0.640088  0.904276  0  .  1
   O  O19  1  0.359912  0.359912  0.095724  0  .  1
   O  O20  1  0.140088  0.140088  0.595724  0  .  1
   O  O21  1  0.162929  0.988414  0.424433  0  .  1
   O  O22  1  0.337071  0.511586  0.924433  0  .  1
   O  O23  1  0.488414  0.662929  0.075567  0  .  1
   O  O24  1  0.011586  0.837071  0.575567  0  .  1
   O  O25  1  0.837071  0.011586  0.575567  0  .  1
   O  O26  1  0.662929  0.488414  0.075567  0  .  1
   O  O27  1  0.511586  0.337071  0.924433  0  .  1
   O  O28  1  0.988414  0.162929  0.424433  0  .  1
   O  O29  1  0.487839  0.987839  0.250000  0  .  1
   O  O30  1  0.012161  0.512161  0.750000  0  .  1
   O  O31  1  0.512161  0.012161  0.750000  0  .  1
   O  O32  1  0.987839  0.487839  0.250000  0  .  1
   O  O33  1  0.673443  0.356624  0.266008  0  .  1
   O  O34  1  0.826557  0.143376  0.766008  0  .  1
   O  O35  1  0.856624  0.173443  0.233992  0  .  1
   O  O36  1  0.643376  0.326557  0.733992  0  .  1
   O  O37  1  0.326557  0.643376  0.733992  0  .  1
   O  O38  1  0.173443  0.856624  0.233992  0  .  1
   O  O39  1  0.143376  0.826557  0.766008  0  .  1
   O  O40  1  0.356624  0.673443  0.266008  0  .  1
   O  O41  1  0.354020  0.179932  0.232767  0  .  1
   O  O42  1  0.145980  0.320068  0.732767  0  .  1
   O  O43  1  0.679932  0.854020  0.267233  0  .  1
   O  O44  1  0.820068  0.645980  0.767233  0  .  1
   O  O45  1  0.645980  0.820068  0.767233  0  .  1
   O  O46  1  0.854020  0.679932  0.267233  0  .  1
   O  O47  1  0.320068  0.145980  0.732767  0  .  1
   O  O48  1  0.179932  0.354020  0.232767  0  .  1
   O  O49  1  0.525595  0.692829  0.416759  0  .  1
   O  O50  1  0.974405  0.807171  0.916759  0  .  1
   O  O51  1  0.192829  0.025595  0.083241  0  .  1
   O  O52  1  0.307171  0.474405  0.583241  0  .  1
   O  O53  1  0.474405  0.307171  0.583241  0  .  1
   O  O54  1  0.025595  0.192829  0.083241  0  .  1
   O  O55  1  0.807171  0.974405  0.916759  0  .  1
   O  O56  1  0.692829  0.525595  0.416759  0  .  1
   O  O57  1  0.018339  0.018339  0.249469  0  .  1
   O  O58  1  0.481661  0.481661  0.749469  0  .  1
   O  O59  1  0.518339  0.518339  0.250531  0  .  1
   O  O60  1  0.981661  0.981661  0.750531  0  .  1
   Ti  Ti61  1  0.816028  0.183972  0.500000  0  .  1
   Ti  Ti62  1  0.683972  0.316028  0.000000  0  .  1
   Ti  Ti63  1  0.183972  0.816028  0.500000  0  .  1
   Ti  Ti64  1  0.316028  0.683972  0.000000  0  .  1
   Ti  Ti65  1  0.000000  0.000000  0.500000  0  .  1
   Ti  Ti66  1  0.500000  0.500000  0.000000  0  .  1
   Ti  Ti67  1  0.501220  0.851748  0.335498  0  .  1
   Ti  Ti68  1  0.998780  0.648252  0.835498  0  .  1
   Ti  Ti69  1  0.351748  0.001220  0.164502  0  .  1
   Ti  Ti70  1  0.148252  0.498780  0.664502  0  .  1
   Ti  Ti71  1  0.498780  0.148252  0.664502  0  .  1
   Ti  Ti72  1  0.001220  0.351748  0.164502  0  .  1
   Ti  Ti73  1  0.648252  0.998780  0.835498  0  .  1
   Ti  Ti74  1  0.851748  0.501220  0.335498  0  .  1
   Ti  Ti75  1  0.853077  0.036450  0.319229  0  .  1
   Ti  Ti76  1  0.646923  0.463550  0.819229  0  .  1
   Ti  Ti77  1  0.536450  0.353077  0.180771  0  .  1
   Ti  Ti78  1  0.963550  0.146923  0.680771  0  .  1
   Ti  Ti79  1  0.146923  0.963550  0.680771  0  .  1
   Ti  Ti80  1  0.353077  0.536450  0.180771  0  .  1
   Ti  Ti81  1  0.463550  0.646923  0.819229  0  .  1
   Ti  Ti82  1  0.036450  0.853077  0.319229  0  .  1
   Ti  Ti83  1  0.662911  0.662911  0.347406  0  .  1
   Ti  Ti84  1  0.837089  0.837089  0.847406  0  .  1
   Ti  Ti85  1  0.162911  0.162911  0.152594  0  .  1
   Ti  Ti86  1  0.337089  0.337089  0.652594  0  .  1
   Ba  Ba87  1  0.478370  0.184786  0.409665  0  .  1
   Ba  Ba88  1  0.021630  0.315214  0.909665  0  .  1
   Ba  Ba89  1  0.684786  0.978370  0.090335  0  .  1
   Ba  Ba90  1  0.815214  0.521630  0.590335  0  .  1
   Ba  Ba91  1  0.521630  0.815214  0.590335  0  .  1
   Ba  Ba92  1  0.978370  0.684786  0.090335  0  .  1
   Ba  Ba93  1  0.315214  0.021630  0.909665  0  .  1
   Ba  Ba94  1  0.184786  0.478370  0.409665  0  .  1
 
