#\#CIF1.1
##########################################################################
#               Crystallographic Information Format file 
#               Produced by PyCifRW module
# 
#  This is a CIF file.  CIF has been adopted by the International
#  Union of Crystallography as the standard for data archiving and 
#  transmission.
#
#  For information on this file format, follow the CIF links at
#  http://www.iucr.org
##########################################################################

data_Ba4Ti4O9
_symmetry_space_group_name_H-M          'P 1'
_cell_length_a                          8.02973372191
_cell_length_b                          24.4484349811
_cell_length_c                          7.02444361206
_cell_angle_alpha                       48.8874731899
_cell_angle_beta                        55.141154344
_cell_angle_gamma                       80.5482036296
_chemical_name_systematic               'Generated by pymatgen'
_symmetry_Int_Tables_number             1
_chemical_formula_structural            Ba4Ti4O9
_chemical_formula_sum                   'Ba12 Ti12 O27'
_cell_volume                            801.043045537
_cell_formula_units_Z                   3
loop_
  _symmetry_equiv_pos_site_id
  _symmetry_equiv_pos_as_xyz
   1  'x, y, z'
 
loop_
  _atom_site_type_symbol
  _atom_site_label
  _atom_site_symmetry_multiplicity
  _atom_site_fract_x
  _atom_site_fract_y
  _atom_site_fract_z
  _atom_site_attached_hydrogens
  _atom_site_B_iso_or_equiv
  _atom_site_occupancy
   Ba  Ba1  1  0.001782  0.000371  0.993028  0  .  1
   Ba  Ba2  1  0.504820  0.000371  0.993028  0  .  1
   Ba  Ba3  1  0.421959  0.168663  0.992772  0  .  1
   Ba  Ba4  1  0.339337  0.333696  0.992747  0  .  1
   Ba  Ba5  1  0.254995  0.501966  0.993117  0  .  1
   Ba  Ba6  1  0.172846  0.667131  0.992547  0  .  1
   Ba  Ba7  1  0.087513  0.835368  0.992607  0  .  1
   Ba  Ba8  1  0.916607  0.168663  0.992772  0  .  1
   Ba  Ba9  1  0.834218  0.333696  0.992747  0  .  1
   Ba  Ba10  1  0.749922  0.501966  0.993117  0  .  1
   Ba  Ba11  1  0.667477  0.667131  0.992547  0  .  1
   Ba  Ba12  1  0.584511  0.835368  0.992607  0  .  1
   O  O13  1  0.250444  0.999408  0.503469  0  .  1
   O  O14  1  0.173675  0.170027  0.480440  0  .  1
   O  O15  1  0.083146  0.332685  0.503930  0  .  1
   O  O16  1  0.006092  0.503042  0.481743  0  .  1
   O  O17  1  0.466637  0.085867  0.480859  0  .  1
   O  O18  1  0.382740  0.253779  0.480741  0  .  1
   O  O19  1  0.215947  0.587067  0.481040  0  .  1
   O  O20  1  0.133171  0.752113  0.481546  0  .  1
   O  O21  1  0.299542  0.419194  0.481722  0  .  1
   O  O22  1  0.045043  0.917995  0.491919  0  .  1
   O  O23  1  0.211424  0.085254  0.991898  0  .  1
   O  O24  1  0.044744  0.417856  0.992655  0  .  1
   O  O25  1  0.746680  0.999408  0.503469  0  .  1
   O  O26  1  0.342762  0.836357  0.482032  0  .  1
   O  O27  1  0.675857  0.170027  0.480440  0  .  1
   O  O28  1  0.580240  0.332685  0.503930  0  .  1
   O  O29  1  0.509123  0.503042  0.481743  0  .  1
   O  O30  1  0.413373  0.665634  0.505408  0  .  1
   O  O31  1  0.956268  0.083607  0.503858  0  .  1
   O  O32  1  0.873569  0.248711  0.504152  0  .  1
   O  O33  1  0.706482  0.581949  0.505087  0  .  1
   O  O34  1  0.622827  0.749884  0.504462  0  .  1
   O  O35  1  0.789856  0.416583  0.503703  0  .  1
   O  O36  1  0.544563  0.917839  0.493034  0  .  1
   O  O37  1  0.915585  0.665634  0.505408  0  .  1
   O  O38  1  0.838849  0.836357  0.482032  0  .  1
   O  O39  1  0.878060  0.750602  0.993279  0  .  1
   Ti  Ti40  1  0.405799  0.162898  0.525506  0  .  1
   Ti  Ti41  1  0.336480  0.334728  0.492312  0  .  1
   Ti  Ti42  1  0.239510  0.495872  0.525109  0  .  1
   Ti  Ti43  1  0.168158  0.667559  0.496127  0  .  1
   Ti  Ti44  1  0.072598  0.829791  0.525012  0  .  1
   Ti  Ti45  1  0.921126  0.168186  0.489562  0  .  1
   Ti  Ti46  1  0.683597  0.672755  0.460051  0  .  1
   Ti  Ti47  1  0.849829  0.339879  0.460462  0  .  1
   Ti  Ti48  1  0.752838  0.500969  0.493356  0  .  1
   Ti  Ti49  1  0.587791  0.834433  0.489983  0  .  1
   Ti  Ti50  1  0.501520  0.001255  0.495705  0  .  1
   Ti  Ti51  1  0.016819  0.006182  0.460180  0  .  1
 
