#\#CIF1.1
##########################################################################
#               Crystallographic Information Format file 
#               Produced by PyCifRW module
# 
#  This is a CIF file.  CIF has been adopted by the International
#  Union of Crystallography as the standard for data archiving and 
#  transmission.
#
#  For information on this file format, follow the CIF links at
#  http://www.iucr.org
##########################################################################

data_Ba5Co5O14
_symmetry_space_group_name_H-M          'P 1'
_cell_length_a                          5.7297813
_cell_length_b                          5.72978130526
_cell_length_c                          11.95749312
_cell_angle_alpha                       90.0
_cell_angle_beta                        90.0
_cell_angle_gamma                       119.99999997
_chemical_name_systematic               'Generated by pymatgen'
_symmetry_Int_Tables_number             1
_chemical_formula_structural            Ba5Co5O14
_chemical_formula_sum                   'Ba5 Co5 O14'
_cell_volume                            339.974906718
_cell_formula_units_Z                   1
loop_
  _symmetry_equiv_pos_site_id
  _symmetry_equiv_pos_as_xyz
   1  'x, y, z'
 
loop_
  _atom_site_type_symbol
  _atom_site_label
  _atom_site_symmetry_multiplicity
  _atom_site_fract_x
  _atom_site_fract_y
  _atom_site_fract_z
  _atom_site_attached_hydrogens
  _atom_site_B_iso_or_equiv
  _atom_site_occupancy
   O  O1  1  0.852971  0.147029  0.398366  0  .  1
   O  O2  1  0.852971  0.705942  0.398366  0  .  1
   O  O3  1  0.294058  0.147029  0.398366  0  .  1
   O  O4  1  0.705942  0.852971  0.601634  0  .  1
   O  O5  1  0.147029  0.294058  0.601634  0  .  1
   O  O6  1  0.147029  0.852971  0.601634  0  .  1
   O  O7  1  0.837646  0.162354  0.802907  0  .  1
   O  O8  1  0.837646  0.675292  0.802907  0  .  1
   O  O9  1  0.324708  0.162354  0.802907  0  .  1
   O  O10  1  0.675292  0.837646  0.197093  0  .  1
   O  O11  1  0.333333  0.666667  0.995159  0  .  1
   O  O12  1  0.666667  0.333333  0.004841  0  .  1
   O  O13  1  0.162354  0.837646  0.197093  0  .  1
   O  O14  1  0.162354  0.324708  0.197093  0  .  1
   Co  Co15  1  0.666667  0.333333  0.859125  0  .  1
   Co  Co16  1  0.333333  0.666667  0.140875  0  .  1
   Co  Co17  1  0.000000  0.000000  0.706470  0  .  1
   Co  Co18  1  0.000000  0.000000  0.293530  0  .  1
   Co  Co19  1  0.000000  0.000000  0.500000  0  .  1
   Ba  Ba20  1  0.666667  0.333333  0.581215  0  .  1
   Ba  Ba21  1  0.333333  0.666667  0.418785  0  .  1
   Ba  Ba22  1  0.666667  0.333333  0.227200  0  .  1
   Ba  Ba23  1  0.333333  0.666667  0.772800  0  .  1
   Ba  Ba24  1  0.000000  0.000000  0.000000  0  .  1
 
