#\#CIF1.1
##########################################################################
#               Crystallographic Information Format file 
#               Produced by PyCifRW module
# 
#  This is a CIF file.  CIF has been adopted by the International
#  Union of Crystallography as the standard for data archiving and 
#  transmission.
#
#  For information on this file format, follow the CIF links at
#  http://www.iucr.org
##########################################################################

data_Ba5Mn5O14
_symmetry_space_group_name_H-M          'P 1'
_cell_length_a                          5.79976072053
_cell_length_b                          5.77275865252
_cell_length_c                          23.9308594725
_cell_angle_alpha                       90.0008110389
_cell_angle_beta                        90.0008138321
_cell_angle_gamma                       120.153545924
_chemical_name_systematic               'Generated by pymatgen'
_symmetry_Int_Tables_number             1
_chemical_formula_structural            Ba5Mn5O14
_chemical_formula_sum                   'Ba10 Mn10 O28'
_cell_volume                            692.800783375
_cell_formula_units_Z                   2
loop_
  _symmetry_equiv_pos_site_id
  _symmetry_equiv_pos_as_xyz
   1  'x, y, z'
 
loop_
  _atom_site_type_symbol
  _atom_site_label
  _atom_site_symmetry_multiplicity
  _atom_site_fract_x
  _atom_site_fract_y
  _atom_site_fract_z
  _atom_site_attached_hydrogens
  _atom_site_B_iso_or_equiv
  _atom_site_occupancy
   Ba  Ba1  1  0.337043  0.668027  0.545986  0  .  1
   Ba  Ba2  1  0.331620  0.668709  0.139045  0  .  1
   Ba  Ba3  1  0.003122  0.998372  0.249999  0  .  1
   Ba  Ba4  1  0.331561  0.668720  0.360928  0  .  1
   Ba  Ba5  1  0.004768  0.001596  0.750023  0  .  1
   Ba  Ba6  1  0.336950  0.667824  0.954007  0  .  1
   Ba  Ba7  1  0.669089  0.332190  0.453989  0  .  1
   Ba  Ba8  1  0.669077  0.332074  0.045984  0  .  1
   Ba  Ba9  1  0.662889  0.331376  0.639061  0  .  1
   Ba  Ba10  1  0.662858  0.331204  0.860933  0  .  1
   Mn  Mn11  1  0.345786  0.673394  0.691914  0  .  1
   Mn  Mn12  1  0.010568  0.999969  1.000000  0  .  1
   Mn  Mn13  1  0.002267  0.998011  0.107366  0  .  1
   Mn  Mn14  1  0.002236  0.998022  0.392602  0  .  1
   Mn  Mn15  1  0.010627  0.000096  0.499988  0  .  1
   Mn  Mn16  1  0.004248  0.002075  0.607390  0  .  1
   Mn  Mn17  1  0.004235  0.001916  0.892643  0  .  1
   Mn  Mn18  1  0.345733  0.673265  0.808160  0  .  1
   Mn  Mn19  1  0.672407  0.326663  0.191857  0  .  1
   Mn  Mn20  1  0.672399  0.326632  0.308101  0  .  1
   O  O21  1  0.155484  0.846124  0.051253  0  .  1
   O  O22  1  0.155476  0.846208  0.448740  0  .  1
   O  O23  1  0.154284  0.824155  0.652403  0  .  1
   O  O24  1  0.939440  0.494527  0.249998  0  .  1
   O  O25  1  0.154177  0.823955  0.847636  0  .  1
   O  O26  1  0.153770  0.330442  0.652253  0  .  1
   O  O27  1  0.154570  0.293314  0.447729  0  .  1
   O  O28  1  0.153753  0.330369  0.847802  0  .  1
   O  O29  1  0.154570  0.293251  0.052243  0  .  1
   O  O30  1  0.330141  0.175920  0.347593  0  .  1
   O  O31  1  0.330167  0.175966  0.152375  0  .  1
   O  O32  1  0.309353  0.154007  0.551248  0  .  1
   O  O33  1  0.309343  0.153848  0.948745  0  .  1
   O  O34  1  0.444912  0.505430  0.750017  0  .  1
   O  O35  1  0.712529  0.849223  0.051388  0  .  1
   O  O36  1  0.683019  0.841429  0.648487  0  .  1
   O  O37  1  0.712534  0.849287  0.448599  0  .  1
   O  O38  1  0.682988  0.841323  0.851549  0  .  1
   O  O39  1  0.823349  0.669576  0.152208  0  .  1
   O  O40  1  0.446175  0.941544  0.750030  0  .  1
   O  O41  1  0.504601  0.058447  0.249992  0  .  1
   O  O42  1  0.823413  0.669556  0.347774  0  .  1
   O  O43  1  0.861328  0.706690  0.947751  0  .  1
   O  O44  1  0.861394  0.706868  0.552250  0  .  1
   O  O45  1  0.841611  0.158616  0.148455  0  .  1
   O  O46  1  0.863243  0.150691  0.948605  0  .  1
   O  O47  1  0.841577  0.158546  0.351507  0  .  1
   O  O48  1  0.863311  0.150857  0.551393  0  .  1
 
