#\#CIF1.1
##########################################################################
#               Crystallographic Information Format file 
#               Produced by PyCifRW module
# 
#  This is a CIF file.  CIF has been adopted by the International
#  Union of Crystallography as the standard for data archiving and 
#  transmission.
#
#  For information on this file format, follow the CIF links at
#  http://www.iucr.org
##########################################################################

data_Ba6Co25S27
_symmetry_space_group_name_H-M          'P 1'
_cell_length_a                          9.9862328
_cell_length_b                          9.9862328
_cell_length_c                          9.9862328
_cell_angle_alpha                       90.0
_cell_angle_beta                        90.0
_cell_angle_gamma                       90.0
_chemical_name_systematic               'Generated by pymatgen'
_symmetry_Int_Tables_number             1
_chemical_formula_structural            Ba6Co25S27
_chemical_formula_sum                   'Ba6 Co25 S27'
_cell_volume                            995.875523464
_cell_formula_units_Z                   1
loop_
  _symmetry_equiv_pos_site_id
  _symmetry_equiv_pos_as_xyz
   1  'x, y, z'
 
loop_
  _atom_site_type_symbol
  _atom_site_label
  _atom_site_symmetry_multiplicity
  _atom_site_fract_x
  _atom_site_fract_y
  _atom_site_fract_z
  _atom_site_attached_hydrogens
  _atom_site_B_iso_or_equiv
  _atom_site_occupancy
   Ba  Ba1  1  0.500000  0.500000  0.194312  0  .  1
   Ba  Ba2  1  0.500000  0.805688  0.500000  0  .  1
   Ba  Ba3  1  0.500000  0.194312  0.500000  0  .  1
   Ba  Ba4  1  0.194312  0.500000  0.500000  0  .  1
   Ba  Ba5  1  0.805688  0.500000  0.500000  0  .  1
   Ba  Ba6  1  0.500000  0.500000  0.805688  0  .  1
   Co  Co7  1  0.129049  0.369530  0.129049  0  .  1
   Co  Co8  1  0.129049  0.870951  0.369530  0  .  1
   Co  Co9  1  0.129049  0.129049  0.630470  0  .  1
   Co  Co10  1  0.129049  0.369530  0.870951  0  .  1
   Co  Co11  1  0.870951  0.369530  0.129049  0  .  1
   Co  Co12  1  0.630470  0.129049  0.129049  0  .  1
   Co  Co13  1  0.369530  0.870951  0.129049  0  .  1
   Co  Co14  1  0.129049  0.129049  0.369530  0  .  1
   Co  Co15  1  0.369530  0.129049  0.129049  0  .  1
   Co  Co16  1  0.630470  0.870951  0.129049  0  .  1
   Co  Co17  1  0.129049  0.870951  0.630470  0  .  1
   Co  Co18  1  0.630470  0.129049  0.870951  0  .  1
   Co  Co19  1  0.870951  0.870951  0.369530  0  .  1
   Co  Co20  1  0.870951  0.129049  0.630470  0  .  1
   Co  Co21  1  0.369530  0.870951  0.870951  0  .  1
   Co  Co22  1  0.129049  0.630470  0.870951  0  .  1
   Co  Co23  1  0.870951  0.369530  0.870951  0  .  1
   Co  Co24  1  0.870951  0.630470  0.129049  0  .  1
   Co  Co25  1  0.369530  0.129049  0.870951  0  .  1
   Co  Co26  1  0.630470  0.870951  0.870951  0  .  1
   Co  Co27  1  0.129049  0.630470  0.129049  0  .  1
   Co  Co28  1  0.870951  0.630470  0.870951  0  .  1
   Co  Co29  1  0.870951  0.129049  0.369530  0  .  1
   Co  Co30  1  0.870951  0.870951  0.630470  0  .  1
   Co  Co31  1  0.000000  0.000000  0.000000  0  .  1
   S  S32  1  0.500000  0.500000  0.500000  0  .  1
   S  S33  1  0.000000  0.239031  0.000000  0  .  1
   S  S34  1  0.000000  0.000000  0.239031  0  .  1
   S  S35  1  0.000000  0.000000  0.760969  0  .  1
   S  S36  1  0.760969  0.000000  0.000000  0  .  1
   S  S37  1  0.239031  0.000000  0.000000  0  .  1
   S  S38  1  0.000000  0.760969  0.000000  0  .  1
   S  S39  1  0.261176  0.261176  0.261176  0  .  1
   S  S40  1  0.261176  0.738824  0.261176  0  .  1
   S  S41  1  0.261176  0.261176  0.738824  0  .  1
   S  S42  1  0.738824  0.261176  0.261176  0  .  1
   S  S43  1  0.738824  0.738824  0.261176  0  .  1
   S  S44  1  0.261176  0.738824  0.738824  0  .  1
   S  S45  1  0.738824  0.261176  0.738824  0  .  1
   S  S46  1  0.738824  0.738824  0.738824  0  .  1
   S  S47  1  0.000000  0.500000  0.244437  0  .  1
   S  S48  1  0.000000  0.755563  0.500000  0  .  1
   S  S49  1  0.000000  0.244437  0.500000  0  .  1
   S  S50  1  0.244437  0.500000  0.000000  0  .  1
   S  S51  1  0.755563  0.500000  0.000000  0  .  1
   S  S52  1  0.500000  0.000000  0.244437  0  .  1
   S  S53  1  0.244437  0.000000  0.500000  0  .  1
   S  S54  1  0.500000  0.244437  0.000000  0  .  1
   S  S55  1  0.500000  0.755563  0.000000  0  .  1
   S  S56  1  0.755563  0.000000  0.500000  0  .  1
   S  S57  1  0.000000  0.500000  0.755563  0  .  1
   S  S58  1  0.500000  0.000000  0.755563  0  .  1
 
