#\#CIF1.1
##########################################################################
#               Crystallographic Information Format file 
#               Produced by PyCifRW module
# 
#  This is a CIF file.  CIF has been adopted by the International
#  Union of Crystallography as the standard for data archiving and 
#  transmission.
#
#  For information on this file format, follow the CIF links at
#  http://www.iucr.org
##########################################################################

data_Ba6Cu34S27
_symmetry_space_group_name_H-M          'P 1'
_cell_length_a                          12.5099810774
_cell_length_b                          12.5716065314
_cell_length_c                          12.6680586417
_cell_angle_alpha                       114.443219714
_cell_angle_beta                        114.168468549
_cell_angle_gamma                       114.097048652
_chemical_name_systematic               'Generated by pymatgen'
_symmetry_Int_Tables_number             1
_chemical_formula_structural            Ba6Cu34S27
_chemical_formula_sum                   'Ba6 Cu34 S27'
_cell_volume                            1188.92386475
_cell_formula_units_Z                   1
loop_
  _symmetry_equiv_pos_site_id
  _symmetry_equiv_pos_as_xyz
   1  'x, y, z'
 
loop_
  _atom_site_type_symbol
  _atom_site_label
  _atom_site_symmetry_multiplicity
  _atom_site_fract_x
  _atom_site_fract_y
  _atom_site_fract_z
  _atom_site_attached_hydrogens
  _atom_site_B_iso_or_equiv
  _atom_site_occupancy
   Ba  Ba1  1  0.043470  0.245984  0.303270  0  .  1
   Ba  Ba2  1  0.699451  0.961510  0.739823  0  .  1
   Ba  Ba3  1  0.741138  0.690067  0.968159  0  .  1
   Ba  Ba4  1  0.255816  0.305987  0.035665  0  .  1
   Ba  Ba5  1  0.294214  0.041613  0.254239  0  .  1
   Ba  Ba6  1  0.959709  0.749844  0.690783  0  .  1
   Cu  Cu7  1  0.142711  0.618871  0.945595  0  .  1
   Cu  Cu8  1  0.060543  0.857431  0.384013  0  .  1
   Cu  Cu9  1  0.376694  0.917274  0.988779  0  .  1
   Cu  Cu10  1  0.106897  0.617515  0.519304  0  .  1
   Cu  Cu11  1  0.151901  0.446088  0.692188  0  .  1
   Cu  Cu12  1  0.012270  0.622207  0.084609  0  .  1
   Cu  Cu13  1  0.313450  0.856143  0.561051  0  .  1
   Cu  Cu14  1  0.395163  0.750189  0.803210  0  .  1
   Cu  Cu15  1  0.384377  0.484882  0.896073  0  .  1
   Cu  Cu16  1  0.089471  0.017137  0.621980  0  .  1
   Cu  Cu17  1  0.204260  0.603777  0.244107  0  .  1
   Cu  Cu18  1  0.272326  0.212164  0.603656  0  .  1
   Cu  Cu19  1  0.467823  0.618168  0.660307  0  .  1
   Cu  Cu20  1  0.478400  0.891289  0.381320  0  .  1
   Cu  Cu21  1  0.355245  0.541052  0.384320  0  .  1
   Cu  Cu22  1  0.383373  0.060131  0.858082  0  .  1
   Cu  Cu23  1  0.568041  0.311265  0.857755  0  .  1
   Cu  Cu24  1  0.430229  0.688972  0.140002  0  .  1
   Cu  Cu25  1  0.614991  0.940352  0.142635  0  .  1
   Cu  Cu26  1  0.653027  0.465833  0.623393  0  .  1
   Cu  Cu27  1  0.519909  0.108964  0.615204  0  .  1
   Cu  Cu28  1  0.539291  0.390537  0.348417  0  .  1
   Cu  Cu29  1  0.727372  0.787656  0.396270  0  .  1
   Cu  Cu30  1  0.796290  0.395081  0.756244  0  .  1
   Cu  Cu31  1  0.909807  0.981759  0.376595  0  .  1
   Cu  Cu32  1  0.613028  0.512625  0.102338  0  .  1
   Cu  Cu33  1  0.603805  0.250510  0.197949  0  .  1
   Cu  Cu34  1  0.687451  0.144182  0.437601  0  .  1
   Cu  Cu35  1  0.987187  0.376710  0.915342  0  .  1
   Cu  Cu36  1  0.848677  0.553247  0.307828  0  .  1
   Cu  Cu37  1  0.893544  0.380848  0.479491  0  .  1
   Cu  Cu38  1  0.622300  0.083271  0.010458  0  .  1
   Cu  Cu39  1  0.941270  0.143250  0.615295  0  .  1
   Cu  Cu40  1  0.856818  0.378277  0.053097  0  .  1
   S  S41  1  0.116997  0.829371  0.560343  0  .  1
   S  S42  1  0.156370  0.644997  0.731473  0  .  1
   S  S43  1  0.167168  0.437537  0.879856  0  .  1
   S  S44  1  0.265180  0.839691  0.356147  0  .  1
   S  S45  1  0.317174  0.661128  0.539289  0  .  1
   S  S46  1  0.016237  0.331147  0.075847  0  .  1
   S  S47  1  0.335706  0.454185  0.682797  0  .  1
   S  S48  1  0.666675  0.921554  0.988377  0  .  1
   S  S49  1  0.358166  0.268104  0.836051  0  .  1
   S  S50  1  0.070644  0.008324  0.330686  0  .  1
   S  S51  1  0.435742  0.887790  0.170947  0  .  1
   S  S52  1  0.474774  0.694149  0.345134  0  .  1
   S  S53  1  0.328014  0.330359  0.318413  0  .  1
   S  S54  1  0.693918  0.691785  0.703916  0  .  1
   S  S55  1  0.524248  0.306761  0.653621  0  .  1
   S  S56  1  0.928969  0.926987  0.936330  0  .  1
   S  S57  1  0.561751  0.112794  0.828442  0  .  1
   S  S58  1  0.929173  0.991636  0.668188  0  .  1
   S  S59  1  0.640521  0.730887  0.164173  0  .  1
   S  S60  1  0.330184  0.077556  0.011270  0  .  1
   S  S61  1  0.665313  0.546088  0.316812  0  .  1
   S  S62  1  0.983001  0.665519  0.922745  0  .  1
   S  S63  1  0.684912  0.341193  0.461530  0  .  1
   S  S64  1  0.733833  0.159802  0.641541  0  .  1
   S  S65  1  0.832268  0.559551  0.119551  0  .  1
   S  S66  1  0.842934  0.353519  0.267698  0  .  1
   S  S67  1  0.883890  0.170426  0.437872  0  .  1
 
