#\#CIF1.1
##########################################################################
#               Crystallographic Information Format file 
#               Produced by PyCifRW module
# 
#  This is a CIF file.  CIF has been adopted by the International
#  Union of Crystallography as the standard for data archiving and 
#  transmission.
#
#  For information on this file format, follow the CIF links at
#  http://www.iucr.org
##########################################################################

data_Ba6Fe8S15
_symmetry_space_group_name_H-M          'P 1'
_cell_length_a                          9.54266054674
_cell_length_b                          9.54266054519
_cell_length_c                          9.54266054677
_cell_angle_alpha                       106.398053284
_cell_angle_beta                        106.398053309
_cell_angle_gamma                       115.809621084
_chemical_name_systematic               'Generated by pymatgen'
_symmetry_Int_Tables_number             1
_chemical_formula_structural            Ba6Fe8S15
_chemical_formula_sum                   'Ba6 Fe8 S15'
_cell_volume                            662.732488365
_cell_formula_units_Z                   1
loop_
  _symmetry_equiv_pos_site_id
  _symmetry_equiv_pos_as_xyz
   1  'x, y, z'
 
loop_
  _atom_site_type_symbol
  _atom_site_label
  _atom_site_symmetry_multiplicity
  _atom_site_fract_x
  _atom_site_fract_y
  _atom_site_fract_z
  _atom_site_attached_hydrogens
  _atom_site_B_iso_or_equiv
  _atom_site_occupancy
   S  S1  1  0.000000  0.000000  0.000000  0  .  1
   S  S2  1  0.500000  0.000000  0.500000  0  .  1
   S  S3  1  0.000000  0.500000  0.500000  0  .  1
   S  S4  1  0.597460  0.705191  0.302650  0  .  1
   S  S5  1  0.705191  0.402540  0.107731  0  .  1
   S  S6  1  0.294809  0.597460  0.892269  0  .  1
   S  S7  1  0.402540  0.294809  0.697350  0  .  1
   S  S8  1  0.047042  0.848570  0.354731  0  .  1
   S  S9  1  0.848570  0.493839  0.801528  0  .  1
   S  S10  1  0.692312  0.047042  0.198472  0  .  1
   S  S11  1  0.493839  0.692312  0.645269  0  .  1
   S  S12  1  0.952958  0.151430  0.645269  0  .  1
   S  S13  1  0.151430  0.506161  0.198472  0  .  1
   S  S14  1  0.307688  0.952958  0.801528  0  .  1
   S  S15  1  0.506161  0.307688  0.354731  0  .  1
   Fe  Fe16  1  0.308245  0.013222  0.588125  0  .  1
   Fe  Fe17  1  0.013222  0.425097  0.704977  0  .  1
   Fe  Fe18  1  0.720119  0.308245  0.295023  0  .  1
   Fe  Fe19  1  0.425097  0.720119  0.411875  0  .  1
   Fe  Fe20  1  0.691755  0.986778  0.411875  0  .  1
   Fe  Fe21  1  0.986778  0.574903  0.295023  0  .  1
   Fe  Fe22  1  0.279881  0.691755  0.704977  0  .  1
   Fe  Fe23  1  0.574903  0.279881  0.588125  0  .  1
   Ba  Ba24  1  0.867569  0.748893  0.616462  0  .  1
   Ba  Ba25  1  0.748893  0.132431  0.881325  0  .  1
   Ba  Ba26  1  0.251107  0.867569  0.118675  0  .  1
   Ba  Ba27  1  0.132431  0.251107  0.383538  0  .  1
   Ba  Ba28  1  0.697247  0.697247  0.000000  0  .  1
   Ba  Ba29  1  0.302753  0.302753  0.000000  0  .  1
 
