#\#CIF1.1
##########################################################################
#               Crystallographic Information Format file 
#               Produced by PyCifRW module
# 
#  This is a CIF file.  CIF has been adopted by the International
#  Union of Crystallography as the standard for data archiving and 
#  transmission.
#
#  For information on this file format, follow the CIF links at
#  http://www.iucr.org
##########################################################################

data_Ba6Ni25S27
_symmetry_space_group_name_H-M          'P 1'
_cell_length_a                          10.06171426
_cell_length_b                          10.06171426
_cell_length_c                          10.06171426
_cell_angle_alpha                       90.0
_cell_angle_beta                        90.0
_cell_angle_gamma                       90.0
_chemical_name_systematic               'Generated by pymatgen'
_symmetry_Int_Tables_number             1
_chemical_formula_structural            Ba6Ni25S27
_chemical_formula_sum                   'Ba6 Ni25 S27'
_cell_volume                            1018.62877254
_cell_formula_units_Z                   1
loop_
  _symmetry_equiv_pos_site_id
  _symmetry_equiv_pos_as_xyz
   1  'x, y, z'
 
loop_
  _atom_site_type_symbol
  _atom_site_label
  _atom_site_symmetry_multiplicity
  _atom_site_fract_x
  _atom_site_fract_y
  _atom_site_fract_z
  _atom_site_attached_hydrogens
  _atom_site_B_iso_or_equiv
  _atom_site_occupancy
   S  S1  1  0.500000  0.000000  0.762471  0  .  1
   S  S2  1  0.000000  0.500000  0.762471  0  .  1
   S  S3  1  0.762471  0.000000  0.500000  0  .  1
   S  S4  1  0.500000  0.762471  0.000000  0  .  1
   S  S5  1  0.500000  0.237529  0.000000  0  .  1
   S  S6  1  0.237529  0.000000  0.500000  0  .  1
   S  S7  1  0.237529  0.500000  0.000000  0  .  1
   S  S8  1  0.000000  0.237529  0.500000  0  .  1
   S  S9  1  0.000000  0.762471  0.500000  0  .  1
   S  S10  1  0.000000  0.500000  0.237529  0  .  1
   S  S11  1  0.723483  0.723483  0.723483  0  .  1
   S  S12  1  0.723483  0.276517  0.723483  0  .  1
   S  S13  1  0.276517  0.723483  0.723483  0  .  1
   S  S14  1  0.723483  0.723483  0.276517  0  .  1
   S  S15  1  0.723483  0.276517  0.276517  0  .  1
   S  S16  1  0.276517  0.276517  0.723483  0  .  1
   S  S17  1  0.276517  0.723483  0.276517  0  .  1
   S  S18  1  0.276517  0.276517  0.276517  0  .  1
   S  S19  1  0.000000  0.761482  0.000000  0  .  1
   S  S20  1  0.238518  0.000000  0.000000  0  .  1
   S  S21  1  0.761482  0.000000  0.000000  0  .  1
   S  S22  1  0.000000  0.000000  0.761482  0  .  1
   S  S23  1  0.000000  0.000000  0.238518  0  .  1
   S  S24  1  0.000000  0.238518  0.000000  0  .  1
   S  S25  1  0.500000  0.500000  0.500000  0  .  1
   S  S26  1  0.762471  0.500000  0.000000  0  .  1
   S  S27  1  0.500000  0.000000  0.237529  0  .  1
   Ni  Ni28  1  0.133010  0.640655  0.133010  0  .  1
   Ni  Ni29  1  0.866990  0.640655  0.866990  0  .  1
   Ni  Ni30  1  0.866990  0.133010  0.359345  0  .  1
   Ni  Ni31  1  0.866990  0.866990  0.640655  0  .  1
   Ni  Ni32  1  0.866990  0.640655  0.133010  0  .  1
   Ni  Ni33  1  0.866990  0.359345  0.866990  0  .  1
   Ni  Ni34  1  0.133010  0.640655  0.866990  0  .  1
   Ni  Ni35  1  0.359345  0.866990  0.866990  0  .  1
   Ni  Ni36  1  0.866990  0.133010  0.640655  0  .  1
   Ni  Ni37  1  0.866990  0.866990  0.359345  0  .  1
   Ni  Ni38  1  0.640655  0.133010  0.866990  0  .  1
   Ni  Ni39  1  0.133010  0.866990  0.640655  0  .  1
   Ni  Ni40  1  0.640655  0.866990  0.133010  0  .  1
   Ni  Ni41  1  0.359345  0.133010  0.133010  0  .  1
   Ni  Ni42  1  0.133010  0.133010  0.359345  0  .  1
   Ni  Ni43  1  0.359345  0.866990  0.133010  0  .  1
   Ni  Ni44  1  0.640655  0.133010  0.133010  0  .  1
   Ni  Ni45  1  0.866990  0.359345  0.133010  0  .  1
   Ni  Ni46  1  0.133010  0.359345  0.866990  0  .  1
   Ni  Ni47  1  0.133010  0.133010  0.640655  0  .  1
   Ni  Ni48  1  0.133010  0.866990  0.359345  0  .  1
   Ni  Ni49  1  0.133010  0.359345  0.133010  0  .  1
   Ni  Ni50  1  0.000000  0.000000  0.000000  0  .  1
   Ni  Ni51  1  0.359345  0.133010  0.866990  0  .  1
   Ni  Ni52  1  0.640655  0.866990  0.866990  0  .  1
   Ba  Ba53  1  0.500000  0.500000  0.804873  0  .  1
   Ba  Ba54  1  0.804873  0.500000  0.500000  0  .  1
   Ba  Ba55  1  0.195127  0.500000  0.500000  0  .  1
   Ba  Ba56  1  0.500000  0.195127  0.500000  0  .  1
   Ba  Ba57  1  0.500000  0.804873  0.500000  0  .  1
   Ba  Ba58  1  0.500000  0.500000  0.195127  0  .  1
 
