#\#CIF1.1
##########################################################################
#               Crystallographic Information Format file 
#               Produced by PyCifRW module
# 
#  This is a CIF file.  CIF has been adopted by the International
#  Union of Crystallography as the standard for data archiving and 
#  transmission.
#
#  For information on this file format, follow the CIF links at
#  http://www.iucr.org
##########################################################################

data_Ba6Ti17O40
_symmetry_space_group_name_H-M          'P 1'
_cell_length_a                          9.99281454771
_cell_length_b                          9.99281458951
_cell_length_c                          19.2162854759
_cell_angle_alpha                       94.4651930236
_cell_angle_beta                        94.4651930474
_cell_angle_gamma                       119.732132178
_chemical_name_systematic               'Generated by pymatgen'
_symmetry_Int_Tables_number             1
_chemical_formula_structural            Ba6Ti17O40
_chemical_formula_sum                   'Ba12 Ti34 O80'
_cell_volume                            1646.09741349
_cell_formula_units_Z                   2
loop_
  _symmetry_equiv_pos_site_id
  _symmetry_equiv_pos_as_xyz
   1  'x, y, z'
 
loop_
  _atom_site_type_symbol
  _atom_site_label
  _atom_site_symmetry_multiplicity
  _atom_site_fract_x
  _atom_site_fract_y
  _atom_site_fract_z
  _atom_site_attached_hydrogens
  _atom_site_B_iso_or_equiv
  _atom_site_occupancy
   Ba  Ba1  1  0.136646  0.569114  0.314952  0  .  1
   Ba  Ba2  1  0.289326  0.439819  0.822687  0  .  1
   Ba  Ba3  1  0.837193  0.020761  0.555657  0  .  1
   Ba  Ba4  1  0.569114  0.136646  0.814952  0  .  1
   Ba  Ba5  1  0.863354  0.430886  0.685048  0  .  1
   Ba  Ba6  1  0.560181  0.710674  0.677313  0  .  1
   Ba  Ba7  1  0.020761  0.837193  0.055657  0  .  1
   Ba  Ba8  1  0.162807  0.979239  0.444343  0  .  1
   Ba  Ba9  1  0.430886  0.863354  0.185048  0  .  1
   Ba  Ba10  1  0.710674  0.560181  0.177313  0  .  1
   Ba  Ba11  1  0.979239  0.162807  0.944343  0  .  1
   Ba  Ba12  1  0.439819  0.289326  0.322687  0  .  1
   Ti  Ti13  1  0.291701  0.649615  0.996502  0  .  1
   Ti  Ti14  1  0.181847  0.869831  0.622789  0  .  1
   Ti  Ti15  1  0.649615  0.291701  0.496502  0  .  1
   Ti  Ti16  1  0.380422  0.231513  0.627787  0  .  1
   Ti  Ti17  1  0.675165  0.836303  0.012683  0  .  1
   Ti  Ti18  1  0.824536  0.626899  0.360349  0  .  1
   Ti  Ti19  1  0.619578  0.768487  0.372213  0  .  1
   Ti  Ti20  1  0.869831  0.181847  0.122789  0  .  1
   Ti  Ti21  1  0.324835  0.163697  0.987317  0  .  1
   Ti  Ti22  1  0.163697  0.324835  0.487317  0  .  1
   Ti  Ti23  1  0.175464  0.373101  0.639651  0  .  1
   Ti  Ti24  1  0.231513  0.380422  0.127787  0  .  1
   Ti  Ti25  1  0.059880  0.940120  0.750000  0  .  1
   Ti  Ti26  1  0.253470  0.746530  0.750000  0  .  1
   Ti  Ti27  1  0.956094  0.463806  0.872914  0  .  1
   Ti  Ti28  1  0.350385  0.708299  0.503498  0  .  1
   Ti  Ti29  1  0.940120  0.059880  0.250000  0  .  1
   Ti  Ti30  1  0.500000  0.000000  0.000000  0  .  1
   Ti  Ti31  1  0.708299  0.350385  0.003498  0  .  1
   Ti  Ti32  1  0.130169  0.818153  0.877211  0  .  1
   Ti  Ti33  1  0.105561  0.894439  0.250000  0  .  1
   Ti  Ti34  1  0.000000  0.500000  0.500000  0  .  1
   Ti  Ti35  1  0.500000  0.500000  0.500000  0  .  1
   Ti  Ti36  1  0.043906  0.536194  0.127086  0  .  1
   Ti  Ti37  1  0.626899  0.824536  0.860349  0  .  1
   Ti  Ti38  1  0.373101  0.175464  0.139651  0  .  1
   Ti  Ti39  1  0.536194  0.043906  0.627086  0  .  1
   Ti  Ti40  1  0.746530  0.253470  0.250000  0  .  1
   Ti  Ti41  1  0.894439  0.105561  0.750000  0  .  1
   Ti  Ti42  1  0.463806  0.956094  0.372914  0  .  1
   Ti  Ti43  1  0.500000  0.500000  0.000000  0  .  1
   Ti  Ti44  1  0.768487  0.619578  0.872213  0  .  1
   Ti  Ti45  1  0.818153  0.130169  0.377211  0  .  1
   Ti  Ti46  1  0.836303  0.675165  0.512683  0  .  1
   O  O47  1  0.344020  0.030368  0.575254  0  .  1
   O  O48  1  0.535891  0.220939  0.683523  0  .  1
   O  O49  1  0.814661  0.327719  0.930285  0  .  1
   O  O50  1  0.702296  0.063399  0.691333  0  .  1
   O  O51  1  0.815657  0.303446  0.449242  0  .  1
   O  O52  1  0.489551  0.651152  0.439500  0  .  1
   O  O53  1  0.880484  0.917651  0.700529  0  .  1
   O  O54  1  0.696554  0.184343  0.050758  0  .  1
   O  O55  1  0.468546  0.643291  0.947665  0  .  1
   O  O56  1  0.672281  0.185339  0.569715  0  .  1
   O  O57  1  0.985829  0.761087  0.318810  0  .  1
   O  O58  1  0.012895  0.849418  0.557732  0  .  1
   O  O59  1  0.558761  0.218480  0.196282  0  .  1
   O  O60  1  0.371522  0.884204  0.682008  0  .  1
   O  O61  1  0.184343  0.696554  0.550758  0  .  1
   O  O62  1  0.115796  0.628478  0.817992  0  .  1
   O  O63  1  0.746501  0.071321  0.191685  0  .  1
   O  O64  1  0.512027  0.861799  0.566736  0  .  1
   O  O65  1  0.928679  0.253499  0.308315  0  .  1
   O  O66  1  0.185339  0.672281  0.069715  0  .  1
   O  O67  1  0.615648  0.638861  0.815207  0  .  1
   O  O68  1  0.119516  0.082349  0.299471  0  .  1
   O  O69  1  0.361139  0.384352  0.684793  0  .  1
   O  O70  1  0.324237  0.317452  0.940817  0  .  1
   O  O71  1  0.071321  0.746501  0.691685  0  .  1
   O  O72  1  0.624433  0.956522  0.939190  0  .  1
   O  O73  1  0.063399  0.702296  0.191333  0  .  1
   O  O74  1  0.221147  0.187745  0.066857  0  .  1
   O  O75  1  0.238913  0.014171  0.181190  0  .  1
   O  O76  1  0.917651  0.880484  0.200529  0  .  1
   O  O77  1  0.487973  0.138201  0.433264  0  .  1
   O  O78  1  0.956522  0.624433  0.439190  0  .  1
   O  O79  1  0.464109  0.779061  0.316477  0  .  1
   O  O80  1  0.812255  0.778853  0.433143  0  .  1
   O  O81  1  0.955918  0.797953  0.819771  0  .  1
   O  O82  1  0.628478  0.115796  0.317992  0  .  1
   O  O83  1  0.779061  0.464109  0.816477  0  .  1
   O  O84  1  0.849013  0.509212  0.554968  0  .  1
   O  O85  1  0.509212  0.849013  0.054968  0  .  1
   O  O86  1  0.778853  0.812255  0.933143  0  .  1
   O  O87  1  0.761087  0.985829  0.818810  0  .  1
   O  O88  1  0.675763  0.682548  0.059183  0  .  1
   O  O89  1  0.297704  0.936601  0.308667  0  .  1
   O  O90  1  0.936601  0.297704  0.808667  0  .  1
   O  O91  1  0.030368  0.344020  0.075254  0  .  1
   O  O92  1  0.969632  0.655980  0.924746  0  .  1
   O  O93  1  0.150987  0.490788  0.445032  0  .  1
   O  O94  1  0.531454  0.356709  0.052335  0  .  1
   O  O95  1  0.044082  0.202047  0.180229  0  .  1
   O  O96  1  0.861799  0.512027  0.066736  0  .  1
   O  O97  1  0.220939  0.535891  0.183523  0  .  1
   O  O98  1  0.441239  0.781520  0.803718  0  .  1
   O  O99  1  0.655980  0.969632  0.424746  0  .  1
   O  O100  1  0.510449  0.348848  0.560500  0  .  1
   O  O101  1  0.348848  0.510449  0.060500  0  .  1
   O  O102  1  0.150582  0.987105  0.942268  0  .  1
   O  O103  1  0.987105  0.150582  0.442268  0  .  1
   O  O104  1  0.218480  0.558761  0.696282  0  .  1
   O  O105  1  0.682548  0.675763  0.559183  0  .  1
   O  O106  1  0.643291  0.468546  0.447665  0  .  1
   O  O107  1  0.849418  0.012895  0.057732  0  .  1
   O  O108  1  0.375567  0.043478  0.060810  0  .  1
   O  O109  1  0.014171  0.238913  0.681190  0  .  1
   O  O110  1  0.043478  0.375567  0.560810  0  .  1
   O  O111  1  0.187745  0.221147  0.566857  0  .  1
   O  O112  1  0.356709  0.531454  0.552335  0  .  1
   O  O113  1  0.253499  0.928679  0.808315  0  .  1
   O  O114  1  0.651152  0.489551  0.939500  0  .  1
   O  O115  1  0.303446  0.815657  0.949242  0  .  1
   O  O116  1  0.202047  0.044082  0.680229  0  .  1
   O  O117  1  0.781520  0.441239  0.303718  0  .  1
   O  O118  1  0.317452  0.324237  0.440817  0  .  1
   O  O119  1  0.138201  0.487973  0.933264  0  .  1
   O  O120  1  0.327719  0.814661  0.430285  0  .  1
   O  O121  1  0.884204  0.371522  0.182008  0  .  1
   O  O122  1  0.638861  0.615648  0.315207  0  .  1
   O  O123  1  0.490788  0.150987  0.945032  0  .  1
   O  O124  1  0.082349  0.119516  0.799471  0  .  1
   O  O125  1  0.384352  0.361139  0.184793  0  .  1
   O  O126  1  0.797953  0.955918  0.319771  0  .  1
 
