#\#CIF1.1
##########################################################################
#               Crystallographic Information Format file 
#               Produced by PyCifRW module
# 
#  This is a CIF file.  CIF has been adopted by the International
#  Union of Crystallography as the standard for data archiving and 
#  transmission.
#
#  For information on this file format, follow the CIF links at
#  http://www.iucr.org
##########################################################################

data_Ba8Co7O19
_symmetry_space_group_name_H-M          'P 1'
_cell_length_a                          10.6774668588
_cell_length_b                          10.6984997455
_cell_length_c                          11.6997273256
_cell_angle_alpha                       105.698909362
_cell_angle_beta                        104.828124878
_cell_angle_gamma                       115.021586694
_chemical_name_systematic               'Generated by pymatgen'
_symmetry_Int_Tables_number             1
_chemical_formula_structural            Ba8Co7O19
_chemical_formula_sum                   'Ba16 Co14 O38'
_cell_volume                            1055.59082972
_cell_formula_units_Z                   2
loop_
  _symmetry_equiv_pos_site_id
  _symmetry_equiv_pos_as_xyz
   1  'x, y, z'
 
loop_
  _atom_site_type_symbol
  _atom_site_label
  _atom_site_symmetry_multiplicity
  _atom_site_fract_x
  _atom_site_fract_y
  _atom_site_fract_z
  _atom_site_attached_hydrogens
  _atom_site_B_iso_or_equiv
  _atom_site_occupancy
   Ba  Ba1  1  0.663997  0.666838  0.331275  0  .  1
   Ba  Ba2  1  0.711655  0.951740  0.677506  0  .  1
   Ba  Ba3  1  0.210689  0.424703  0.162543  0  .  1
   Ba  Ba4  1  0.182691  0.461716  0.662568  0  .  1
   Ba  Ba5  1  0.409720  0.919301  0.831059  0  .  1
   Ba  Ba6  1  0.184719  0.178733  0.359616  0  .  1
   Ba  Ba7  1  0.171810  0.177102  0.818019  0  .  1
   Ba  Ba8  1  0.391331  0.894240  0.316671  0  .  1
   Ba  Ba9  1  0.706516  0.962876  0.175660  0  .  1
   Ba  Ba10  1  0.488025  0.199740  0.660709  0  .  1
   Ba  Ba11  1  0.950271  0.730775  0.161693  0  .  1
   Ba  Ba12  1  0.930837  0.425170  0.858697  0  .  1
   Ba  Ba13  1  0.647100  0.631765  0.813751  0  .  1
   Ba  Ba14  1  0.933216  0.417179  0.313423  0  .  1
   Ba  Ba15  1  0.475074  0.214202  0.176117  0  .  1
   Ba  Ba16  1  0.963321  0.720689  0.674866  0  .  1
   Co  Co17  1  0.166200  0.863325  0.995540  0  .  1
   Co  Co18  1  0.835534  0.142787  0.998491  0  .  1
   Co  Co19  1  0.427230  0.559792  0.006099  0  .  1
   Co  Co20  1  0.311287  0.678893  0.506999  0  .  1
   Co  Co21  1  0.718850  0.305428  0.002391  0  .  1
   Co  Co22  1  0.284363  0.699858  0.006584  0  .  1
   Co  Co23  1  0.578778  0.446273  0.006003  0  .  1
   Co  Co24  1  0.057573  0.972504  0.506304  0  .  1
   Co  Co25  1  0.450706  0.537769  0.505935  0  .  1
   Co  Co26  1  0.197789  0.829689  0.505442  0  .  1
   Co  Co27  1  0.605938  0.415289  0.494660  0  .  1
   Co  Co28  1  0.759679  0.275335  0.510588  0  .  1
   Co  Co29  1  0.884169  0.080491  0.497327  0  .  1
   Co  Co30  1  0.978830  0.000868  0.011178  0  .  1
   O  O31  1  0.381057  0.913640  0.073523  0  .  1
   O  O32  1  0.181007  0.678520  0.357564  0  .  1
   O  O33  1  0.176008  0.944285  0.416199  0  .  1
   O  O34  1  0.679977  0.158665  0.845070  0  .  1
   O  O35  1  0.423932  0.698005  0.144382  0  .  1
   O  O36  1  0.879475  0.213453  0.636547  0  .  1
   O  O37  1  0.697566  0.429620  0.918326  0  .  1
   O  O38  1  0.169290  0.005882  0.132824  0  .  1
   O  O39  1  0.198545  0.973022  0.644357  0  .  1
   O  O40  1  0.686724  0.156233  0.068684  0  .  1
   O  O41  1  0.130750  0.715853  0.070275  0  .  1
   O  O42  1  0.664134  0.646755  0.573194  0  .  1
   O  O43  1  0.938262  0.365711  0.072918  0  .  1
   O  O44  1  0.241351  0.472713  0.421421  0  .  1
   O  O45  1  0.719669  0.447658  0.144953  0  .  1
   O  O46  1  0.438956  0.415352  0.347592  0  .  1
   O  O47  1  0.457613  0.385346  0.574649  0  .  1
   O  O48  1  0.909545  0.944384  0.357420  0  .  1
   O  O49  1  0.428679  0.401509  0.071478  0  .  1
   O  O50  1  0.163687  0.698050  0.856970  0  .  1
   O  O51  1  0.428248  0.428476  0.857412  0  .  1
   O  O52  1  0.746870  0.441643  0.420771  0  .  1
   O  O53  1  0.950925  0.803064  0.922268  0  .  1
   O  O54  1  0.419381  0.893329  0.571342  0  .  1
   O  O55  1  0.216091  0.987660  0.913121  0  .  1
   O  O56  1  0.447962  0.676991  0.646546  0  .  1
   O  O57  1  0.105609  0.189551  0.571566  0  .  1
   O  O58  1  0.643596  0.670636  0.071698  0  .  1
   O  O59  1  0.910653  0.943975  0.573779  0  .  1
   O  O60  1  0.984185  0.138196  0.929598  0  .  1
   O  O61  1  0.874538  0.226135  0.425994  0  .  1
   O  O62  1  0.541930  0.185623  0.425575  0  .  1
   O  O63  1  0.767212  0.424110  0.652145  0  .  1
   O  O64  1  0.740426  0.928639  0.927409  0  .  1
   O  O65  1  0.221816  0.490715  0.918547  0  .  1
   O  O66  1  0.151472  0.680353  0.572460  0  .  1
   O  O67  1  0.677814  0.952201  0.415008  0  .  1
   O  O68  1  0.984429  0.142920  0.158572  0  .  1
 
