#\#CIF1.1
##########################################################################
#               Crystallographic Information Format file 
#               Produced by PyCifRW module
# 
#  This is a CIF file.  CIF has been adopted by the International
#  Union of Crystallography as the standard for data archiving and 
#  transmission.
#
#  For information on this file format, follow the CIF links at
#  http://www.iucr.org
##########################################################################

data_Ba8Cu8O19
_symmetry_space_group_name_H-M          'P 1'
_cell_length_a                          9.91055518162
_cell_length_b                          5.75492987179
_cell_length_c                          9.40486766621
_cell_angle_alpha                       89.9420171953
_cell_angle_beta                        91.2633004194
_cell_angle_gamma                       89.4510596336
_chemical_name_systematic               'Generated by pymatgen'
_symmetry_Int_Tables_number             1
_chemical_formula_structural            Ba8Cu8O19
_chemical_formula_sum                   'Ba8 Cu8 O19'
_cell_volume                            536.247001696
_cell_formula_units_Z                   1
loop_
  _symmetry_equiv_pos_site_id
  _symmetry_equiv_pos_as_xyz
   1  'x, y, z'
 
loop_
  _atom_site_type_symbol
  _atom_site_label
  _atom_site_symmetry_multiplicity
  _atom_site_fract_x
  _atom_site_fract_y
  _atom_site_fract_z
  _atom_site_attached_hydrogens
  _atom_site_B_iso_or_equiv
  _atom_site_occupancy
   Ba  Ba1  1  0.991103  0.984130  0.250285  0  .  1
   Ba  Ba2  1  0.996758  0.992647  0.745192  0  .  1
   Ba  Ba3  1  0.164775  0.502452  0.498689  0  .  1
   Ba  Ba4  1  0.327120  0.990490  0.012526  0  .  1
   Ba  Ba5  1  0.493419  0.478919  0.243912  0  .  1
   Ba  Ba6  1  0.487927  0.494171  0.749034  0  .  1
   Ba  Ba7  1  0.670034  0.000318  0.483139  0  .  1
   Ba  Ba8  1  0.837484  0.495462  0.000843  0  .  1
   Cu  Cu9  1  0.175640  0.496562  0.864958  0  .  1
   Cu  Cu10  1  0.175710  0.490908  0.139597  0  .  1
   Cu  Cu11  1  0.341273  0.002689  0.366757  0  .  1
   Cu  Cu12  1  0.333371  0.017805  0.636228  0  .  1
   Cu  Cu13  1  0.674609  0.989490  0.127760  0  .  1
   Cu  Cu14  1  0.696451  0.014118  0.853356  0  .  1
   Cu  Cu15  1  0.828866  0.516166  0.634985  0  .  1
   Cu  Cu16  1  0.836991  0.503711  0.362598  0  .  1
   O  O17  1  0.015102  0.481271  0.233684  0  .  1
   O  O18  1  0.014362  0.489598  0.765554  0  .  1
   O  O19  1  0.096193  0.692253  0.000154  0  .  1
   O  O20  1  0.240264  0.225203  0.249191  0  .  1
   O  O21  1  0.258696  0.791224  0.744156  0  .  1
   O  O22  1  0.252496  0.251739  0.747380  0  .  1
   O  O23  1  0.254763  0.764395  0.273105  0  .  1
   O  O24  1  0.325227  0.482988  0.003238  0  .  1
   O  O25  1  0.409958  0.234757  0.503907  0  .  1
   O  O26  1  0.404044  0.793234  0.514720  0  .  1
   O  O27  1  0.514013  0.971238  0.224296  0  .  1
   O  O28  1  0.589242  0.182271  0.981253  0  .  1
   O  O29  1  0.739549  0.725166  0.242140  0  .  1
   O  O30  1  0.735831  0.281882  0.730115  0  .  1
   O  O31  1  0.751647  0.266671  0.264836  0  .  1
   O  O32  1  0.727223  0.751701  0.737442  0  .  1
   O  O33  1  0.836951  0.989150  0.008610  0  .  1
   O  O34  1  0.897522  0.291506  0.505544  0  .  1
   O  O35  1  0.904654  0.738212  0.497986  0  .  1
 
