#\#CIF1.1
##########################################################################
#               Crystallographic Information Format file 
#               Produced by PyCifRW module
# 
#  This is a CIF file.  CIF has been adopted by the International
#  Union of Crystallography as the standard for data archiving and 
#  transmission.
#
#  For information on this file format, follow the CIF links at
#  http://www.iucr.org
##########################################################################

data_Ba8Mn8O23
_symmetry_space_group_name_H-M          'P 1'
_cell_length_a                          5.79833052871
_cell_length_b                          5.76565058745
_cell_length_c                          19.4151329423
_cell_angle_alpha                       90.0013153673
_cell_angle_beta                        89.9982939638
_cell_angle_gamma                       119.81380707
_chemical_name_systematic               'Generated by pymatgen'
_symmetry_Int_Tables_number             1
_chemical_formula_structural            Ba8Mn8O23
_chemical_formula_sum                   'Ba8 Mn8 O23'
_cell_volume                            563.162929024
_cell_formula_units_Z                   1
loop_
  _symmetry_equiv_pos_site_id
  _symmetry_equiv_pos_as_xyz
   1  'x, y, z'
 
loop_
  _atom_site_type_symbol
  _atom_site_label
  _atom_site_symmetry_multiplicity
  _atom_site_fract_x
  _atom_site_fract_y
  _atom_site_fract_z
  _atom_site_attached_hydrogens
  _atom_site_B_iso_or_equiv
  _atom_site_occupancy
   Ba  Ba1  1  0.337301  0.668594  0.137434  0  .  1
   Ba  Ba2  1  0.334452  0.666925  0.376497  0  .  1
   Ba  Ba3  1  0.992127  0.996140  0.000010  0  .  1
   Ba  Ba4  1  0.334452  0.667221  0.623526  0  .  1
   Ba  Ba5  1  0.337332  0.668881  0.862534  0  .  1
   Ba  Ba6  1  0.664604  0.332888  0.745456  0  .  1
   Ba  Ba7  1  0.667828  0.333186  0.500014  0  .  1
   Ba  Ba8  1  0.664569  0.331862  0.254476  0  .  1
   Mn  Mn9  1  0.994335  0.997358  0.693263  0  .  1
   Mn  Mn10  1  0.995121  0.997535  0.175423  0  .  1
   Mn  Mn11  1  0.994336  0.997060  0.306723  0  .  1
   Mn  Mn12  1  0.000681  0.000133  0.435775  0  .  1
   Mn  Mn13  1  0.000693  0.000222  0.564344  0  .  1
   Mn  Mn14  1  0.995130  0.997769  0.824503  0  .  1
   Mn  Mn15  1  0.651496  0.325872  0.928062  0  .  1
   Mn  Mn16  1  0.651423  0.325750  0.071895  0  .  1
   O  O17  1  0.149487  0.850462  0.500069  0  .  1
   O  O18  1  0.139690  0.847764  0.244261  0  .  1
   O  O19  1  0.139669  0.848073  0.755667  0  .  1
   O  O20  1  0.139689  0.291848  0.244285  0  .  1
   O  O21  1  0.139653  0.292052  0.755658  0  .  1
   O  O22  1  0.149469  0.298652  0.500055  0  .  1
   O  O23  1  0.693837  0.846864  0.245910  0  .  1
   O  O24  1  0.693896  0.847159  0.754033  0  .  1
   O  O25  1  0.551673  0.493793  0.999988  0  .  1
   O  O26  1  0.294757  0.147431  0.628227  0  .  1
   O  O27  1  0.294882  0.147342  0.371868  0  .  1
   O  O28  1  0.315349  0.157699  0.125361  0  .  1
   O  O29  1  0.315427  0.157862  0.874572  0  .  1
   O  O30  1  0.703717  0.851632  0.500065  0  .  1
   O  O31  1  0.851045  0.701181  0.372845  0  .  1
   O  O32  1  0.851082  0.701430  0.627272  0  .  1
   O  O33  1  0.551668  0.058048  0.999976  0  .  1
   O  O34  1  0.843466  0.669085  0.120666  0  .  1
   O  O35  1  0.843445  0.669118  0.879242  0  .  1
   O  O36  1  0.843422  0.174430  0.120688  0  .  1
   O  O37  1  0.843506  0.174623  0.879276  0  .  1
   O  O38  1  0.851000  0.149615  0.372887  0  .  1
   O  O39  1  0.851059  0.149712  0.627195  0  .  1
 
