#\#CIF1.1
##########################################################################
#               Crystallographic Information Format file 
#               Produced by PyCifRW module
# 
#  This is a CIF file.  CIF has been adopted by the International
#  Union of Crystallography as the standard for data archiving and 
#  transmission.
#
#  For information on this file format, follow the CIF links at
#  http://www.iucr.org
##########################################################################

data_Ba8V7O22
_symmetry_space_group_name_H-M          'P 1'
_cell_length_a                          19.777420741
_cell_length_b                          19.7774207423
_cell_length_c                          19.7774207484
_cell_angle_alpha                       17.1215758935
_cell_angle_beta                        17.1215758651
_cell_angle_gamma                       17.1215759073
_chemical_name_systematic               'Generated by pymatgen'
_symmetry_Int_Tables_number             1
_chemical_formula_structural            Ba8V7O22
_chemical_formula_sum                   'Ba8 V7 O22'
_cell_volume                            584.972217706
_cell_formula_units_Z                   1
loop_
  _symmetry_equiv_pos_site_id
  _symmetry_equiv_pos_as_xyz
   1  'x, y, z'
 
loop_
  _atom_site_type_symbol
  _atom_site_label
  _atom_site_symmetry_multiplicity
  _atom_site_fract_x
  _atom_site_fract_y
  _atom_site_fract_z
  _atom_site_attached_hydrogens
  _atom_site_B_iso_or_equiv
  _atom_site_occupancy
   O  O1  1  0.564007  0.564007  0.564007  0  .  1
   O  O2  1  0.435993  0.435993  0.435993  0  .  1
   O  O3  1  0.773645  0.773645  0.773645  0  .  1
   O  O4  1  0.226355  0.226355  0.226355  0  .  1
   O  O5  1  0.104045  0.104045  0.592578  0  .  1
   O  O6  1  0.104045  0.592578  0.104045  0  .  1
   O  O7  1  0.592578  0.104045  0.104045  0  .  1
   O  O8  1  0.407422  0.895955  0.895955  0  .  1
   O  O9  1  0.895955  0.895955  0.407422  0  .  1
   O  O10  1  0.895955  0.407422  0.895955  0  .  1
   O  O11  1  0.686466  0.686466  0.200453  0  .  1
   O  O12  1  0.686466  0.200453  0.686466  0  .  1
   O  O13  1  0.200453  0.686466  0.686466  0  .  1
   O  O14  1  0.799547  0.313534  0.313534  0  .  1
   O  O15  1  0.313534  0.313534  0.799547  0  .  1
   O  O16  1  0.174049  0.716808  0.174049  0  .  1
   O  O17  1  0.174049  0.174049  0.716808  0  .  1
   O  O18  1  0.716808  0.174049  0.174049  0  .  1
   O  O19  1  0.283192  0.825951  0.825951  0  .  1
   O  O20  1  0.825951  0.283192  0.825951  0  .  1
   O  O21  1  0.825951  0.825951  0.283192  0  .  1
   O  O22  1  0.313534  0.799547  0.313534  0  .  1
   V  V23  1  0.000000  0.000000  0.000000  0  .  1
   V  V24  1  0.744021  0.744021  0.744021  0  .  1
   V  V25  1  0.255979  0.255979  0.255979  0  .  1
   V  V26  1  0.534589  0.534589  0.534589  0  .  1
   V  V27  1  0.465411  0.465411  0.465411  0  .  1
   V  V28  1  0.955056  0.955056  0.955056  0  .  1
   V  V29  1  0.044944  0.044944  0.044944  0  .  1
   Ba  Ba30  1  0.612235  0.612235  0.612235  0  .  1
   Ba  Ba31  1  0.387765  0.387765  0.387765  0  .  1
   Ba  Ba32  1  0.818963  0.818963  0.818963  0  .  1
   Ba  Ba33  1  0.181037  0.181037  0.181037  0  .  1
   Ba  Ba34  1  0.894290  0.894290  0.894290  0  .  1
   Ba  Ba35  1  0.105710  0.105710  0.105710  0  .  1
   Ba  Ba36  1  0.680846  0.680846  0.680846  0  .  1
   Ba  Ba37  1  0.319154  0.319154  0.319154  0  .  1
 
