#\#CIF1.1
##########################################################################
#               Crystallographic Information Format file 
#               Produced by PyCifRW module
# 
#  This is a CIF file.  CIF has been adopted by the International
#  Union of Crystallography as the standard for data archiving and 
#  transmission.
#
#  For information on this file format, follow the CIF links at
#  http://www.iucr.org
##########################################################################

data_BaBiO3
_symmetry_space_group_name_H-M          'P 1'
_cell_length_a                          11.5336965178
_cell_length_b                          4.33178825173
_cell_length_c                          7.0813487246
_cell_angle_alpha                       118.654811643
_cell_angle_beta                        140.2916683
_cell_angle_gamma                       61.1359462508
_chemical_name_systematic               'Generated by pymatgen'
_symmetry_Int_Tables_number             1
_chemical_formula_structural            BaBiO3
_chemical_formula_sum                   'Ba2 Bi2 O6'
_cell_volume                            194.217866968
_cell_formula_units_Z                   2
loop_
  _symmetry_equiv_pos_site_id
  _symmetry_equiv_pos_as_xyz
   1  'x, y, z'
 
loop_
  _atom_site_type_symbol
  _atom_site_label
  _atom_site_symmetry_multiplicity
  _atom_site_fract_x
  _atom_site_fract_y
  _atom_site_fract_z
  _atom_site_attached_hydrogens
  _atom_site_B_iso_or_equiv
  _atom_site_occupancy
   Ba  Ba1  1  0.338863  0.900551  0.077164  0  .  1
   Ba  Ba2  1  0.642548  -0.015973  -0.036333  0  .  1
   Bi  Bi3  1  0.103091  0.657657  0.279948  0  .  1
   Bi  Bi4  1  0.857832  -0.084930  0.670309  0  .  1
   O  O5  1  0.649325  0.683206  0.222311  0  .  1
   O  O6  1  0.521766  0.453640  0.450173  0  .  1
   O  O7  1  0.173468  0.187375  0.596036  0  .  1
   O  O8  1  0.284077  0.289323  0.606129  0  .  1
   O  O9  1  0.456375  0.436328  0.559605  0  .  1
   O  O10  1  0.972656  0.992821  0.574660  0  .  1
 
