#\#CIF1.1
##########################################################################
#               Crystallographic Information Format file 
#               Produced by PyCifRW module
# 
#  This is a CIF file.  CIF has been adopted by the International
#  Union of Crystallography as the standard for data archiving and 
#  transmission.
#
#  For information on this file format, follow the CIF links at
#  http://www.iucr.org
##########################################################################

data_BaCoO3
_symmetry_space_group_name_H-M          'P 1'
_cell_length_a                          5.72132528217
_cell_length_b                          5.7234175347
_cell_length_c                          4.78193961761
_cell_angle_alpha                       90.0450075256
_cell_angle_beta                        89.9320849579
_cell_angle_gamma                       120.015896841
_chemical_name_systematic               'Generated by pymatgen'
_symmetry_Int_Tables_number             1
_chemical_formula_structural            BaCoO3
_chemical_formula_sum                   'Ba2 Co2 O6'
_cell_volume                            135.586635088
_cell_formula_units_Z                   2
loop_
  _symmetry_equiv_pos_site_id
  _symmetry_equiv_pos_as_xyz
   1  'x, y, z'
 
loop_
  _atom_site_type_symbol
  _atom_site_label
  _atom_site_symmetry_multiplicity
  _atom_site_fract_x
  _atom_site_fract_y
  _atom_site_fract_z
  _atom_site_attached_hydrogens
  _atom_site_B_iso_or_equiv
  _atom_site_occupancy
   Ba  Ba1  1  0.666821  0.333321  0.999757  0  .  1
   Ba  Ba2  1  0.333180  0.666677  0.500245  0  .  1
   Co  Co3  1  0.000000  1.000000  0.250185  0  .  1
   Co  Co4  1  0.999999  1.000002  0.749837  0  .  1
   O  O5  1  0.704309  0.852029  0.998987  0  .  1
   O  O6  1  0.852224  0.147739  0.501623  0  .  1
   O  O7  1  0.147812  0.852226  0.998370  0  .  1
   O  O8  1  0.148025  0.295764  0.998657  0  .  1
   O  O9  1  0.852016  0.704314  0.501334  0  .  1
   O  O10  1  0.295612  0.147930  0.501003  0  .  1
 
