#\#CIF1.1
##########################################################################
#               Crystallographic Information Format file 
#               Produced by PyCifRW module
# 
#  This is a CIF file.  CIF has been adopted by the International
#  Union of Crystallography as the standard for data archiving and 
#  transmission.
#
#  For information on this file format, follow the CIF links at
#  http://www.iucr.org
##########################################################################

data_BaCuO2
_symmetry_space_group_name_H-M          'P 1'
_cell_length_a                          5.75462251521
_cell_length_b                          11.75018863
_cell_length_c                          3.7694897641
_cell_angle_alpha                       90.0
_cell_angle_beta                        90.0235174009
_cell_angle_gamma                       90.0
_chemical_name_systematic               'Generated by pymatgen'
_symmetry_Int_Tables_number             1
_chemical_formula_structural            BaCuO2
_chemical_formula_sum                   'Ba4 Cu4 O8'
_cell_volume                            254.884960631
_cell_formula_units_Z                   4
loop_
  _symmetry_equiv_pos_site_id
  _symmetry_equiv_pos_as_xyz
   1  'x, y, z'
 
loop_
  _atom_site_type_symbol
  _atom_site_label
  _atom_site_symmetry_multiplicity
  _atom_site_fract_x
  _atom_site_fract_y
  _atom_site_fract_z
  _atom_site_attached_hydrogens
  _atom_site_B_iso_or_equiv
  _atom_site_occupancy
   Ba  Ba1  1  0.223709  0.112550  0.505878  0  .  1
   Ba  Ba2  1  0.276047  0.388103  0.505014  0  .  1
   Ba  Ba3  1  0.723953  0.888103  0.494986  0  .  1
   Ba  Ba4  1  0.776291  0.612550  0.494122  0  .  1
   Cu  Cu5  1  0.235959  0.873831  0.985928  0  .  1
   Cu  Cu6  1  0.264212  0.626426  0.985465  0  .  1
   Cu  Cu7  1  0.735788  0.126426  0.014535  0  .  1
   Cu  Cu8  1  0.764041  0.373831  0.014072  0  .  1
   O  O9  1  0.021177  0.747887  0.972177  0  .  1
   O  O10  1  0.978823  0.247887  0.027823  0  .  1
   O  O11  1  0.023163  0.498751  0.000283  0  .  1
   O  O12  1  0.476052  0.001383  0.000908  0  .  1
   O  O13  1  0.478776  0.753069  0.970170  0  .  1
   O  O14  1  0.521224  0.253069  0.029830  0  .  1
   O  O15  1  0.523948  0.501383  0.999092  0  .  1
   O  O16  1  0.976837  0.998751  0.999717  0  .  1
 
