#\#CIF1.1
##########################################################################
#               Crystallographic Information Format file 
#               Produced by PyCifRW module
# 
#  This is a CIF file.  CIF has been adopted by the International
#  Union of Crystallography as the standard for data archiving and 
#  transmission.
#
#  For information on this file format, follow the CIF links at
#  http://www.iucr.org
##########################################################################

data_BaCu3O4
_symmetry_space_group_name_H-M          'P 1'
_cell_length_a                          5.32346106
_cell_length_b                          5.64736415798
_cell_length_c                          6.18588114746
_cell_angle_alpha                       117.302809359
_cell_angle_beta                        90.0
_cell_angle_gamma                       90.0
_chemical_name_systematic               'Generated by pymatgen'
_symmetry_Int_Tables_number             1
_chemical_formula_structural            BaCu3O4
_chemical_formula_sum                   'Ba1 Cu3 O4'
_cell_volume                            165.251414555
_cell_formula_units_Z                   1
loop_
  _symmetry_equiv_pos_site_id
  _symmetry_equiv_pos_as_xyz
   1  'x, y, z'
 
loop_
  _atom_site_type_symbol
  _atom_site_label
  _atom_site_symmetry_multiplicity
  _atom_site_fract_x
  _atom_site_fract_y
  _atom_site_fract_z
  _atom_site_attached_hydrogens
  _atom_site_B_iso_or_equiv
  _atom_site_occupancy
   O  O1  1  0.500000  0.642035  0.732579  0  .  1
   O  O2  1  0.500000  0.357965  0.267421  0  .  1
   Cu  Cu3  1  0.500000  0.266149  0.532699  0  .  1
   Cu  Cu4  1  0.500000  0.733851  0.467301  0  .  1
   Ba  Ba5  1  0.000000  0.000000  0.000000  0  .  1
   O  O6  1  0.500000  0.908180  0.266777  0  .  1
   O  O7  1  0.500000  0.091820  0.733223  0  .  1
   Cu  Cu8  1  0.500000  0.000000  0.000000  0  .  1
 
