#\#CIF1.1
##########################################################################
#               Crystallographic Information Format file 
#               Produced by PyCifRW module
# 
#  This is a CIF file.  CIF has been adopted by the International
#  Union of Crystallography as the standard for data archiving and 
#  transmission.
#
#  For information on this file format, follow the CIF links at
#  http://www.iucr.org
##########################################################################

data_BaFe2S3
_symmetry_space_group_name_H-M          'P 1'
_cell_length_a                          5.16512354
_cell_length_b                          6.93044506641
_cell_length_c                          6.93044506543
_cell_angle_alpha                       101.677291638
_cell_angle_beta                        90.0
_cell_angle_gamma                       90.0
_chemical_name_systematic               'Generated by pymatgen'
_symmetry_Int_Tables_number             1
_chemical_formula_structural            BaFe2S3
_chemical_formula_sum                   'Ba2 Fe4 S6'
_cell_volume                            242.951786049
_cell_formula_units_Z                   2
loop_
  _symmetry_equiv_pos_site_id
  _symmetry_equiv_pos_as_xyz
   1  'x, y, z'
 
loop_
  _atom_site_type_symbol
  _atom_site_label
  _atom_site_symmetry_multiplicity
  _atom_site_fract_x
  _atom_site_fract_y
  _atom_site_fract_z
  _atom_site_attached_hydrogens
  _atom_site_B_iso_or_equiv
  _atom_site_occupancy
   S  S1  1  0.750000  0.180610  0.399990  0  .  1
   S  S2  1  0.250000  0.819390  0.600010  0  .  1
   S  S3  1  0.250000  0.399990  0.180610  0  .  1
   S  S4  1  0.750000  0.600010  0.819390  0  .  1
   S  S5  1  0.750000  0.110175  0.889825  0  .  1
   S  S6  1  0.250000  0.889825  0.110175  0  .  1
   Fe  Fe7  1  0.000000  0.854825  0.854825  0  .  1
   Fe  Fe8  1  0.000000  0.145175  0.145175  0  .  1
   Fe  Fe9  1  0.500000  0.145175  0.145175  0  .  1
   Fe  Fe10  1  0.500000  0.854825  0.854825  0  .  1
   Ba  Ba11  1  0.250000  0.317114  0.682886  0  .  1
   Ba  Ba12  1  0.750000  0.682886  0.317114  0  .  1
 
