#\#CIF1.1
##########################################################################
#               Crystallographic Information Format file 
#               Produced by PyCifRW module
# 
#  This is a CIF file.  CIF has been adopted by the International
#  Union of Crystallography as the standard for data archiving and 
#  transmission.
#
#  For information on this file format, follow the CIF links at
#  http://www.iucr.org
##########################################################################

data_BaGa4
_symmetry_space_group_name_H-M          'P 1'
_cell_length_a                          4.62109205756
_cell_length_b                          4.62109205715
_cell_length_c                          6.35139259001
_cell_angle_alpha                       111.332873878
_cell_angle_beta                        111.33287388
_cell_angle_gamma                       90.000000031
_chemical_name_systematic               'Generated by pymatgen'
_symmetry_Int_Tables_number             1
_chemical_formula_structural            BaGa4
_chemical_formula_sum                   'Ba1 Ga4'
_cell_volume                            116.304455264
_cell_formula_units_Z                   1
loop_
  _symmetry_equiv_pos_site_id
  _symmetry_equiv_pos_as_xyz
   1  'x, y, z'
 
loop_
  _atom_site_type_symbol
  _atom_site_label
  _atom_site_symmetry_multiplicity
  _atom_site_fract_x
  _atom_site_fract_y
  _atom_site_fract_z
  _atom_site_attached_hydrogens
  _atom_site_B_iso_or_equiv
  _atom_site_occupancy
   Ga  Ga1  1  0.621088  0.621088  0.242176  0  .  1
   Ga  Ga2  1  0.750000  0.250000  0.500000  0  .  1
   Ga  Ga3  1  0.250000  0.750000  0.500000  0  .  1
   Ga  Ga4  1  0.378912  0.378912  0.757824  0  .  1
   Ba  Ba5  1  0.000000  0.000000  0.000000  0  .  1
 
