#\#CIF1.1
##########################################################################
#               Crystallographic Information Format file 
#               Produced by PyCifRW module
# 
#  This is a CIF file.  CIF has been adopted by the International
#  Union of Crystallography as the standard for data archiving and 
#  transmission.
#
#  For information on this file format, follow the CIF links at
#  http://www.iucr.org
##########################################################################

data_BaMn4O8
_symmetry_space_group_name_H-M          'P 1'
_cell_length_a                          12.963425318
_cell_length_b                          5.95276203653
_cell_length_c                          12.973375796
_cell_angle_alpha                       96.8284821531
_cell_angle_beta                        90.7975472437
_cell_angle_gamma                       83.5013208431
_chemical_name_systematic               'Generated by pymatgen'
_symmetry_Int_Tables_number             1
_chemical_formula_structural            BaMn4O8
_chemical_formula_sum                   'Ba6 Mn24 O48'
_cell_volume                            987.643089303
_cell_formula_units_Z                   6
loop_
  _symmetry_equiv_pos_site_id
  _symmetry_equiv_pos_as_xyz
   1  'x, y, z'
 
loop_
  _atom_site_type_symbol
  _atom_site_label
  _atom_site_symmetry_multiplicity
  _atom_site_fract_x
  _atom_site_fract_y
  _atom_site_fract_z
  _atom_site_attached_hydrogens
  _atom_site_B_iso_or_equiv
  _atom_site_occupancy
   Ba  Ba1  1  0.855220  0.420312  0.483719  0  .  1
   Ba  Ba2  1  0.483736  0.653788  0.145086  0  .  1
   Ba  Ba3  1  0.000000  0.750000  0.000000  0  .  1
   Ba  Ba4  1  0.000000  0.250000  0.000000  0  .  1
   Ba  Ba5  1  0.516264  0.846212  0.854914  0  .  1
   Ba  Ba6  1  0.144780  0.079688  0.516281  0  .  1
   Mn  Mn7  1  0.719274  0.825067  0.022498  0  .  1
   Mn  Mn8  1  0.716153  0.325323  0.019080  0  .  1
   Mn  Mn9  1  0.781486  0.108245  0.212274  0  .  1
   Mn  Mn10  1  0.784405  0.606635  0.211627  0  .  1
   Mn  Mn11  1  0.622375  0.433957  0.364657  0  .  1
   Mn  Mn12  1  0.627089  0.936989  0.369462  0  .  1
   Mn  Mn13  1  0.980942  0.685654  0.716318  0  .  1
   Mn  Mn14  1  0.977478  0.183491  0.719170  0  .  1
   Mn  Mn15  1  0.630311  0.249338  0.626770  0  .  1
   Mn  Mn16  1  0.635101  0.748219  0.622419  0  .  1
   Mn  Mn17  1  0.788038  0.499660  0.785040  0  .  1
   Mn  Mn18  1  0.788071  0.997956  0.780752  0  .  1
   Mn  Mn19  1  0.211929  0.502044  0.219248  0  .  1
   Mn  Mn20  1  0.211962  0.000340  0.214960  0  .  1
   Mn  Mn21  1  0.364899  0.751781  0.377581  0  .  1
   Mn  Mn22  1  0.369689  0.250662  0.373230  0  .  1
   Mn  Mn23  1  0.022522  0.316509  0.280830  0  .  1
   Mn  Mn24  1  0.019058  0.814346  0.283682  0  .  1
   Mn  Mn25  1  0.377625  0.066043  0.635343  0  .  1
   Mn  Mn26  1  0.372911  0.563011  0.630538  0  .  1
   Mn  Mn27  1  0.218514  0.391755  0.787726  0  .  1
   Mn  Mn28  1  0.215595  0.893365  0.788373  0  .  1
   Mn  Mn29  1  0.280726  0.674933  0.977502  0  .  1
   Mn  Mn30  1  0.283847  0.174677  0.980920  0  .  1
   O  O31  1  0.818971  0.558157  0.058621  0  .  1
   O  O32  1  0.818461  0.061304  0.059707  0  .  1
   O  O33  1  0.879785  0.346175  0.237124  0  .  1
   O  O34  1  0.879934  0.832434  0.232817  0  .  1
   O  O35  1  0.994805  0.100407  0.372251  0  .  1
   O  O36  1  0.000964  0.589985  0.372924  0  .  1
   O  O37  1  0.687642  0.857992  0.174706  0  .  1
   O  O38  1  0.686694  0.384637  0.173992  0  .  1
   O  O39  1  0.727978  0.652909  0.350538  0  .  1
   O  O40  1  0.728039  0.160588  0.350874  0  .  1
   O  O41  1  0.373131  0.903341  0.004805  0  .  1
   O  O42  1  0.372038  0.411989  0.000269  0  .  1
   O  O43  1  0.527866  0.707622  0.351608  0  .  1
   O  O44  1  0.529509  0.202933  0.355800  0  .  1
   O  O45  1  0.940278  0.968184  0.817527  0  .  1
   O  O46  1  0.941568  0.471181  0.819852  0  .  1
   O  O47  1  0.643347  0.974020  0.529609  0  .  1
   O  O48  1  0.649036  0.468174  0.527623  0  .  1
   O  O49  1  0.236864  0.723140  0.120289  0  .  1
   O  O50  1  0.232726  0.219133  0.120350  0  .  1
   O  O51  1  0.826195  0.701594  0.687125  0  .  1
   O  O52  1  0.825655  0.228758  0.687784  0  .  1
   O  O53  1  0.350633  0.482731  0.272538  0  .  1
   O  O54  1  0.350716  0.975467  0.271718  0  .  1
   O  O55  1  0.649284  0.524533  0.728282  0  .  1
   O  O56  1  0.649367  0.017269  0.727462  0  .  1
   O  O57  1  0.173805  0.798406  0.312875  0  .  1
   O  O58  1  0.174345  0.271242  0.312216  0  .  1
   O  O59  1  0.763136  0.776860  0.879711  0  .  1
   O  O60  1  0.767274  0.280867  0.879650  0  .  1
   O  O61  1  0.356653  0.525980  0.470391  0  .  1
   O  O62  1  0.350964  0.031826  0.472377  0  .  1
   O  O63  1  0.059722  0.531816  0.182473  0  .  1
   O  O64  1  0.058432  0.028819  0.180148  0  .  1
   O  O65  1  0.472134  0.792378  0.648392  0  .  1
   O  O66  1  0.470491  0.297067  0.644200  0  .  1
   O  O67  1  0.626869  0.596659  0.995195  0  .  1
   O  O68  1  0.627962  0.088011  0.999731  0  .  1
   O  O69  1  0.272022  0.847091  0.649462  0  .  1
   O  O70  1  0.271961  0.339412  0.649126  0  .  1
   O  O71  1  0.312358  0.642008  0.825294  0  .  1
   O  O72  1  0.313306  0.115363  0.826008  0  .  1
   O  O73  1  0.005195  0.399593  0.627749  0  .  1
   O  O74  1  0.999036  0.910015  0.627076  0  .  1
   O  O75  1  0.120066  0.667566  0.767183  0  .  1
   O  O76  1  0.120215  0.153825  0.762876  0  .  1
   O  O77  1  0.181029  0.941843  0.941379  0  .  1
   O  O78  1  0.181539  0.438696  0.940293  0  .  1
 
