#\#CIF1.1
##########################################################################
#               Crystallographic Information Format file 
#               Produced by PyCifRW module
# 
#  This is a CIF file.  CIF has been adopted by the International
#  Union of Crystallography as the standard for data archiving and 
#  transmission.
#
#  For information on this file format, follow the CIF links at
#  http://www.iucr.org
##########################################################################

data_BaMnO3
_symmetry_space_group_name_H-M          'P 1'
_cell_length_a                          5.75966926088
_cell_length_b                          5.75970558368
_cell_length_c                          14.3133946504
_cell_angle_alpha                       89.9992083434
_cell_angle_beta                        90.0002544792
_cell_angle_gamma                       120.001785482
_chemical_name_systematic               'Generated by pymatgen'
_symmetry_Int_Tables_number             1
_chemical_formula_structural            BaMnO3
_chemical_formula_sum                   'Ba6 Mn6 O18'
_cell_volume                            411.209645797
_cell_formula_units_Z                   6
loop_
  _symmetry_equiv_pos_site_id
  _symmetry_equiv_pos_as_xyz
   1  'x, y, z'
 
loop_
  _atom_site_type_symbol
  _atom_site_label
  _atom_site_symmetry_multiplicity
  _atom_site_fract_x
  _atom_site_fract_y
  _atom_site_fract_z
  _atom_site_attached_hydrogens
  _atom_site_B_iso_or_equiv
  _atom_site_occupancy
   Ba  Ba1  1  0.333339  0.666651  0.168270  0  .  1
   Ba  Ba2  1  0.333456  0.666575  0.500028  0  .  1
   Ba  Ba3  1  0.333343  0.666739  0.831735  0  .  1
   Ba  Ba4  1  0.999921  0.000041  0.000035  0  .  1
   Ba  Ba5  1  0.666681  0.333331  0.664496  0  .  1
   Ba  Ba6  1  0.666690  0.333312  0.335497  0  .  1
   Mn  Mn7  1  0.000008  0.999982  0.235112  0  .  1
   Mn  Mn8  1  0.000015  0.999983  0.412401  0  .  1
   Mn  Mn9  1  0.000020  0.000015  0.587596  0  .  1
   Mn  Mn10  1  0.000002  0.000031  0.764897  0  .  1
   Mn  Mn11  1  0.666644  0.333359  0.909198  0  .  1
   Mn  Mn12  1  0.666657  0.333331  0.090811  0  .  1
   O  O13  1  0.956799  0.478430  0.000001  0  .  1
   O  O14  1  0.147602  0.852387  0.326489  0  .  1
   O  O15  1  0.147604  0.852428  0.673500  0  .  1
   O  O16  1  0.147622  0.295194  0.326491  0  .  1
   O  O17  1  0.147617  0.295235  0.673495  0  .  1
   O  O18  1  0.704792  0.852370  0.326494  0  .  1
   O  O19  1  0.704789  0.852416  0.673494  0  .  1
   O  O20  1  0.521576  0.478410  0.000003  0  .  1
   O  O21  1  0.298091  0.149043  0.499992  0  .  1
   O  O22  1  0.334833  0.167416  0.165090  0  .  1
   O  O23  1  0.334841  0.167423  0.834902  0  .  1
   O  O24  1  0.521556  0.043195  0.000003  0  .  1
   O  O25  1  0.832564  0.665149  0.165090  0  .  1
   O  O26  1  0.850967  0.701923  0.500000  0  .  1
   O  O27  1  0.832568  0.665148  0.834896  0  .  1
   O  O28  1  0.850977  0.149035  0.499986  0  .  1
   O  O29  1  0.832572  0.167428  0.165092  0  .  1
   O  O30  1  0.832558  0.167420  0.834910  0  .  1
 
