#\#CIF1.1
##########################################################################
#               Crystallographic Information Format file 
#               Produced by PyCifRW module
# 
#  This is a CIF file.  CIF has been adopted by the International
#  Union of Crystallography as the standard for data archiving and 
#  transmission.
#
#  For information on this file format, follow the CIF links at
#  http://www.iucr.org
##########################################################################

data_BaMn2V2O8
_symmetry_space_group_name_H-M          'P 1'
_cell_length_a                          8.85031654509
_cell_length_b                          10.0884101896
_cell_length_c                          10.0884101928
_cell_angle_alpha                       78.9069380352
_cell_angle_beta                        63.9829989211
_cell_angle_gamma                       63.9829989222
_chemical_name_systematic               'Generated by pymatgen'
_symmetry_Int_Tables_number             1
_chemical_formula_structural            BaMn2V2O8
_chemical_formula_sum                   'Ba4 Mn8 V8 O32'
_cell_volume                            727.44286891
_cell_formula_units_Z                   4
loop_
  _symmetry_equiv_pos_site_id
  _symmetry_equiv_pos_as_xyz
   1  'x, y, z'
 
loop_
  _atom_site_type_symbol
  _atom_site_label
  _atom_site_symmetry_multiplicity
  _atom_site_fract_x
  _atom_site_fract_y
  _atom_site_fract_z
  _atom_site_attached_hydrogens
  _atom_site_B_iso_or_equiv
  _atom_site_occupancy
   O  O1  1  0.340871  0.587824  0.409460  0  .  1
   O  O2  1  0.338155  0.912176  0.090540  0  .  1
   O  O3  1  0.250331  0.090540  0.587824  0  .  1
   O  O4  1  0.928694  0.409460  0.912176  0  .  1
   O  O5  1  0.159129  0.090540  0.912176  0  .  1
   O  O6  1  0.571306  0.587824  0.090540  0  .  1
   O  O7  1  0.249669  0.912176  0.409460  0  .  1
   O  O8  1  0.161845  0.409460  0.587824  0  .  1
   O  O9  1  0.659129  0.412176  0.590540  0  .  1
   O  O10  1  0.661845  0.087824  0.909460  0  .  1
   O  O11  1  0.749669  0.909460  0.412176  0  .  1
   O  O12  1  0.071306  0.590540  0.087824  0  .  1
   O  O13  1  0.840871  0.909460  0.087824  0  .  1
   O  O14  1  0.428694  0.412176  0.909460  0  .  1
   O  O15  1  0.750331  0.087824  0.590540  0  .  1
   O  O16  1  0.838155  0.590540  0.412176  0  .  1
   O  O17  1  0.962555  0.726625  0.584693  0  .  1
   O  O18  1  0.273873  0.773375  0.915307  0  .  1
   O  O19  1  0.047248  0.915307  0.726625  0  .  1
   O  O20  1  0.689180  0.584693  0.773375  0  .  1
   O  O21  1  0.773873  0.415307  0.273375  0  .  1
   O  O22  1  0.547248  0.226625  0.415307  0  .  1
   O  O23  1  0.189180  0.273375  0.084693  0  .  1
   O  O24  1  0.462555  0.084693  0.226625  0  .  1
   O  O25  1  0.310820  0.415307  0.226625  0  .  1
   O  O26  1  0.952752  0.084693  0.273375  0  .  1
   O  O27  1  0.726127  0.226625  0.084693  0  .  1
   O  O28  1  0.037445  0.273375  0.415307  0  .  1
   O  O29  1  0.226127  0.584693  0.726625  0  .  1
   O  O30  1  0.452752  0.773375  0.584693  0  .  1
   O  O31  1  0.810820  0.726625  0.915307  0  .  1
   O  O32  1  0.537445  0.915307  0.773375  0  .  1
   V  V33  1  0.329793  0.920207  0.920207  0  .  1
   V  V34  1  0.750000  0.579793  0.920207  0  .  1
   V  V35  1  0.250000  0.920207  0.579793  0  .  1
   V  V36  1  0.170207  0.579793  0.579793  0  .  1
   V  V37  1  0.670207  0.079793  0.079793  0  .  1
   V  V38  1  0.250000  0.420207  0.079793  0  .  1
   V  V39  1  0.750000  0.079793  0.420207  0  .  1
   V  V40  1  0.829793  0.420207  0.420207  0  .  1
   Mn  Mn41  1  0.042722  0.750000  0.914557  0  .  1
   Mn  Mn42  1  0.457278  0.585443  0.750000  0  .  1
   Mn  Mn43  1  0.792722  0.914557  0.750000  0  .  1
   Mn  Mn44  1  0.707278  0.750000  0.585443  0  .  1
   Mn  Mn45  1  0.957278  0.250000  0.085443  0  .  1
   Mn  Mn46  1  0.542722  0.414557  0.250000  0  .  1
   Mn  Mn47  1  0.207278  0.085443  0.250000  0  .  1
   Mn  Mn48  1  0.292722  0.250000  0.414557  0  .  1
   Ba  Ba49  1  0.375000  0.250000  0.750000  0  .  1
   Ba  Ba50  1  0.625000  0.750000  0.250000  0  .  1
   Ba  Ba51  1  0.875000  0.250000  0.750000  0  .  1
   Ba  Ba52  1  0.125000  0.750000  0.250000  0  .  1
 
