#\#CIF1.1
##########################################################################
#               Crystallographic Information Format file 
#               Produced by PyCifRW module
# 
#  This is a CIF file.  CIF has been adopted by the International
#  Union of Crystallography as the standard for data archiving and 
#  transmission.
#
#  For information on this file format, follow the CIF links at
#  http://www.iucr.org
##########################################################################

data_BaNiS2
_symmetry_space_group_name_H-M          'P 1'
_cell_length_a                          4.42091289
_cell_length_b                          4.42091289
_cell_length_c                          8.97257086
_cell_angle_alpha                       90.0
_cell_angle_beta                        90.0
_cell_angle_gamma                       90.0
_chemical_name_systematic               'Generated by pymatgen'
_symmetry_Int_Tables_number             1
_chemical_formula_structural            BaNiS2
_chemical_formula_sum                   'Ba2 Ni2 S4'
_cell_volume                            175.364149003
_cell_formula_units_Z                   2
loop_
  _symmetry_equiv_pos_site_id
  _symmetry_equiv_pos_as_xyz
   1  'x, y, z'
 
loop_
  _atom_site_type_symbol
  _atom_site_label
  _atom_site_symmetry_multiplicity
  _atom_site_fract_x
  _atom_site_fract_y
  _atom_site_fract_z
  _atom_site_attached_hydrogens
  _atom_site_B_iso_or_equiv
  _atom_site_occupancy
   S  S1  1  0.250000  0.750000  0.500000  0  .  1
   S  S2  1  0.750000  0.250000  0.500000  0  .  1
   S  S3  1  0.250000  0.250000  0.157636  0  .  1
   S  S4  1  0.750000  0.750000  0.842364  0  .  1
   Ni  Ni5  1  0.250000  0.250000  0.414928  0  .  1
   Ni  Ni6  1  0.750000  0.750000  0.585072  0  .  1
   Ba  Ba7  1  0.750000  0.750000  0.197836  0  .  1
   Ba  Ba8  1  0.250000  0.250000  0.802164  0  .  1
 
