#\#CIF1.1
##########################################################################
#               Crystallographic Information Format file 
#               Produced by PyCifRW module
# 
#  This is a CIF file.  CIF has been adopted by the International
#  Union of Crystallography as the standard for data archiving and 
#  transmission.
#
#  For information on this file format, follow the CIF links at
#  http://www.iucr.org
##########################################################################

data_BaNiO2
_symmetry_space_group_name_H-M          'P 1'
_cell_length_a                          4.78157369
_cell_length_b                          5.49602153528
_cell_length_c                          5.49602153228
_cell_angle_alpha                       116.040292845
_cell_angle_beta                        90.0
_cell_angle_gamma                       90.0
_chemical_name_systematic               'Generated by pymatgen'
_symmetry_Int_Tables_number             1
_chemical_formula_structural            BaNiO2
_chemical_formula_sum                   'Ba2 Ni2 O4'
_cell_volume                            129.771342615
_cell_formula_units_Z                   2
loop_
  _symmetry_equiv_pos_site_id
  _symmetry_equiv_pos_as_xyz
   1  'x, y, z'
 
loop_
  _atom_site_type_symbol
  _atom_site_label
  _atom_site_symmetry_multiplicity
  _atom_site_fract_x
  _atom_site_fract_y
  _atom_site_fract_z
  _atom_site_attached_hydrogens
  _atom_site_B_iso_or_equiv
  _atom_site_occupancy
   O  O1  1  0.750000  0.861838  0.699254  0  .  1
   O  O2  1  0.250000  0.138162  0.300746  0  .  1
   O  O3  1  0.750000  0.300746  0.138162  0  .  1
   O  O4  1  0.250000  0.699254  0.861838  0  .  1
   Ni  Ni5  1  0.500000  0.000000  0.000000  0  .  1
   Ni  Ni6  1  0.000000  0.000000  0.000000  0  .  1
   Ba  Ba7  1  0.750000  0.346209  0.653791  0  .  1
   Ba  Ba8  1  0.250000  0.653791  0.346209  0  .  1
 
