#\#CIF1.1
##########################################################################
#               Crystallographic Information Format file 
#               Produced by PyCifRW module
# 
#  This is a CIF file.  CIF has been adopted by the International
#  Union of Crystallography as the standard for data archiving and 
#  transmission.
#
#  For information on this file format, follow the CIF links at
#  http://www.iucr.org
##########################################################################

data_BaS
_symmetry_space_group_name_H-M          'P 1'
_cell_length_a                          4.56594484544
_cell_length_b                          4.56594483918
_cell_length_c                          4.56594484
_cell_angle_alpha                       59.9999999941
_cell_angle_beta                        60.0000000394
_cell_angle_gamma                       60.0000000228
_chemical_name_systematic               'Generated by pymatgen'
_symmetry_Int_Tables_number             1
_chemical_formula_structural            BaS
_chemical_formula_sum                   'Ba1 S1'
_cell_volume                            67.3095961043
_cell_formula_units_Z                   1
loop_
  _symmetry_equiv_pos_site_id
  _symmetry_equiv_pos_as_xyz
   1  'x, y, z'
 
loop_
  _atom_site_type_symbol
  _atom_site_label
  _atom_site_symmetry_multiplicity
  _atom_site_fract_x
  _atom_site_fract_y
  _atom_site_fract_z
  _atom_site_attached_hydrogens
  _atom_site_B_iso_or_equiv
  _atom_site_occupancy
   S  S1  1  0.500000  0.500000  0.500000  0  .  1
   Ba  Ba2  1  0.000000  0.000000  0.000000  0  .  1
 
