#\#CIF1.1
##########################################################################
#               Crystallographic Information Format file 
#               Produced by PyCifRW module
# 
#  This is a CIF file.  CIF has been adopted by the International
#  Union of Crystallography as the standard for data archiving and 
#  transmission.
#
#  For information on this file format, follow the CIF links at
#  http://www.iucr.org
##########################################################################

data_BaTi6O13
_symmetry_space_group_name_H-M          'P 1'
_cell_length_a                          7.5669723138
_cell_length_b                          7.61817433241
_cell_length_c                          10.0053158941
_cell_angle_alpha                       72.4148298959
_cell_angle_beta                        74.5102727732
_cell_angle_gamma                       60.8238332048
_chemical_name_systematic               'Generated by pymatgen'
_symmetry_Int_Tables_number             1
_chemical_formula_structural            BaTi6O13
_chemical_formula_sum                   'Ba2 Ti12 O26'
_cell_volume                            475.062945062
_cell_formula_units_Z                   2
loop_
  _symmetry_equiv_pos_site_id
  _symmetry_equiv_pos_as_xyz
   1  'x, y, z'
 
loop_
  _atom_site_type_symbol
  _atom_site_label
  _atom_site_symmetry_multiplicity
  _atom_site_fract_x
  _atom_site_fract_y
  _atom_site_fract_z
  _atom_site_attached_hydrogens
  _atom_site_B_iso_or_equiv
  _atom_site_occupancy
   Ba  Ba1  1  0.323900  0.969107  0.868792  0  .  1
   Ba  Ba2  1  0.676100  0.030893  0.131208  0  .  1
   Ti  Ti3  1  0.681816  0.371851  0.751366  0  .  1
   Ti  Ti4  1  0.318184  0.628149  0.248634  0  .  1
   Ti  Ti5  1  0.922508  0.914917  0.768557  0  .  1
   Ti  Ti6  1  0.077492  0.085083  0.231443  0  .  1
   Ti  Ti7  1  0.207862  0.459126  0.019064  0  .  1
   Ti  Ti8  1  0.792138  0.540874  0.980936  0  .  1
   Ti  Ti9  1  0.247052  0.492127  0.720293  0  .  1
   Ti  Ti10  1  0.752948  0.507873  0.279707  0  .  1
   Ti  Ti11  1  0.407234  0.845389  0.496090  0  .  1
   Ti  Ti12  1  0.592766  0.154611  0.503910  0  .  1
   Ti  Ti13  1  0.868669  0.724772  0.503489  0  .  1
   Ti  Ti14  1  0.131331  0.275228  0.496511  0  .  1
   O  O15  1  0.154452  0.708637  0.860503  0  .  1
   O  O16  1  0.845548  0.291363  0.139497  0  .  1
   O  O17  1  0.437115  0.325327  0.859062  0  .  1
   O  O18  1  0.562885  0.674673  0.140938  0  .  1
   O  O19  1  0.602253  0.874075  0.599297  0  .  1
   O  O20  1  0.397747  0.125925  0.400703  0  .  1
   O  O21  1  0.740811  0.828528  0.890596  0  .  1
   O  O22  1  0.259189  0.171472  0.109404  0  .  1
   O  O23  1  0.881100  0.445344  0.609000  0  .  1
   O  O24  1  0.118900  0.554656  0.391000  0  .  1
   O  O25  1  0.872993  0.130725  0.852237  0  .  1
   O  O26  1  0.127007  0.869275  0.147763  0  .  1
   O  O27  1  0.452351  0.586347  0.625851  0  .  1
   O  O28  1  0.547649  0.413653  0.374149  0  .  1
   O  O29  1  0.168704  0.010819  0.612172  0  .  1
   O  O30  1  0.831296  0.989181  0.387828  0  .  1
   O  O31  1  0.723356  0.150960  0.639377  0  .  1
   O  O32  1  0.276644  0.849040  0.360623  0  .  1
   O  O33  1  0.632029  0.540722  0.872320  0  .  1
   O  O34  1  0.367971  0.459278  0.127680  0  .  1
   O  O35  1  0.016867  0.723293  0.633814  0  .  1
   O  O36  1  0.983133  0.276707  0.366186  0  .  1
   O  O37  1  0.055285  0.417694  0.883346  0  .  1
   O  O38  1  0.944715  0.582306  0.116654  0  .  1
   O  O39  1  0.308811  0.289365  0.623601  0  .  1
   O  O40  1  0.691189  0.710635  0.376399  0  .  1
 
