#\#CIF1.1
##########################################################################
#               Crystallographic Information Format file 
#               Produced by PyCifRW module
# 
#  This is a CIF file.  CIF has been adopted by the International
#  Union of Crystallography as the standard for data archiving and 
#  transmission.
#
#  For information on this file format, follow the CIF links at
#  http://www.iucr.org
##########################################################################

data_BaTi10O20
_symmetry_space_group_name_H-M          'P 1'
_cell_length_a                          10.387824206
_cell_length_b                          8.50810964082
_cell_length_c                          10.382844608
_cell_angle_alpha                       112.091696769
_cell_angle_beta                        88.430379536
_cell_angle_gamma                       112.052027974
_chemical_name_systematic               'Generated by pymatgen'
_symmetry_Int_Tables_number             1
_chemical_formula_structural            BaTi10O20
_chemical_formula_sum                   'Ba2 Ti20 O40'
_cell_volume                            781.119019681
_cell_formula_units_Z                   2
loop_
  _symmetry_equiv_pos_site_id
  _symmetry_equiv_pos_as_xyz
   1  'x, y, z'
 
loop_
  _atom_site_type_symbol
  _atom_site_label
  _atom_site_symmetry_multiplicity
  _atom_site_fract_x
  _atom_site_fract_y
  _atom_site_fract_z
  _atom_site_attached_hydrogens
  _atom_site_B_iso_or_equiv
  _atom_site_occupancy
   Ba  Ba1  1  0.703314  0.000627  0.703385  0  .  1
   Ba  Ba2  1  0.296686  0.999373  0.296615  0  .  1
   Ti  Ti3  1  0.865280  0.518708  0.045428  0  .  1
   Ti  Ti4  1  0.686839  0.822585  0.206500  0  .  1
   Ti  Ti5  1  0.891826  0.815058  0.397909  0  .  1
   Ti  Ti6  1  0.913348  0.181358  0.396324  0  .  1
   Ti  Ti7  1  0.510567  0.186682  0.001286  0  .  1
   Ti  Ti8  1  0.711988  0.179381  0.193648  0  .  1
   Ti  Ti9  1  0.939844  0.496277  0.756961  0  .  1
   Ti  Ti10  1  0.540791  0.494662  0.356626  0  .  1
   Ti  Ti11  1  0.334903  0.481843  0.154576  0  .  1
   Ti  Ti12  1  0.732977  0.475925  0.552246  0  .  1
   Ti  Ti13  1  0.459209  0.505338  0.643374  0  .  1
   Ti  Ti14  1  0.665097  0.518157  0.845424  0  .  1
   Ti  Ti15  1  0.267023  0.524075  0.447754  0  .  1
   Ti  Ti16  1  0.060156  0.503723  0.243039  0  .  1
   Ti  Ti17  1  0.489433  0.813318  0.998714  0  .  1
   Ti  Ti18  1  0.288012  0.820619  0.806352  0  .  1
   Ti  Ti19  1  0.086652  0.818642  0.603676  0  .  1
   Ti  Ti20  1  0.108174  0.184942  0.602091  0  .  1
   Ti  Ti21  1  0.313161  0.177415  0.793500  0  .  1
   Ti  Ti22  1  0.134720  0.481292  0.954573  0  .  1
   O  O23  1  0.625346  0.704239  0.000092  0  .  1
   O  O24  1  0.821390  0.703600  0.196662  0  .  1
   O  O25  1  0.962948  0.953739  0.606820  0  .  1
   O  O26  1  0.561061  0.952491  0.205062  0  .  1
   O  O27  1  0.365851  0.953980  0.009740  0  .  1
   O  O28  1  0.766708  0.952432  0.409572  0  .  1
   O  O29  1  0.862852  0.373987  0.158992  0  .  1
   O  O30  1  0.933600  0.624722  0.636819  0  .  1
   O  O31  1  0.736715  0.630777  0.444973  0  .  1
   O  O32  1  0.334121  0.629766  0.042697  0  .  1
   O  O33  1  0.534326  0.627408  0.240303  0  .  1
   O  O34  1  0.830959  0.047845  0.197549  0  .  1
   O  O35  1  0.666920  0.639423  0.713813  0  .  1
   O  O36  1  0.472938  0.646052  0.518782  0  .  1
   O  O37  1  0.867742  0.638577  0.914471  0  .  1
   O  O38  1  0.268686  0.643711  0.315813  0  .  1
   O  O39  1  0.069442  0.641673  0.117518  0  .  1
   O  O40  1  0.968585  0.289347  0.603400  0  .  1
   O  O41  1  0.571889  0.291549  0.204707  0  .  1
   O  O42  1  0.776028  0.295964  0.399638  0  .  1
   O  O43  1  0.031415  0.710653  0.396600  0  .  1
   O  O44  1  0.428111  0.708451  0.795293  0  .  1
   O  O45  1  0.223972  0.704036  0.600362  0  .  1
   O  O46  1  0.527062  0.353948  0.481218  0  .  1
   O  O47  1  0.132258  0.361423  0.085529  0  .  1
   O  O48  1  0.930558  0.358327  0.882482  0  .  1
   O  O49  1  0.333080  0.360577  0.286187  0  .  1
   O  O50  1  0.731314  0.356289  0.684187  0  .  1
   O  O51  1  0.169041  0.952155  0.802451  0  .  1
   O  O52  1  0.665879  0.370234  0.957303  0  .  1
   O  O53  1  0.465674  0.372592  0.759697  0  .  1
   O  O54  1  0.263285  0.369223  0.555027  0  .  1
   O  O55  1  0.066400  0.375278  0.363181  0  .  1
   O  O56  1  0.137148  0.626013  0.841008  0  .  1
   O  O57  1  0.634149  0.046020  0.990260  0  .  1
   O  O58  1  0.438939  0.047509  0.794938  0  .  1
   O  O59  1  0.233292  0.047568  0.590428  0  .  1
   O  O60  1  0.037052  0.046261  0.393180  0  .  1
   O  O61  1  0.374654  0.295761  0.999908  0  .  1
   O  O62  1  0.178610  0.296400  0.803338  0  .  1
 
