#\#CIF1.1
##########################################################################
#               Crystallographic Information Format file 
#               Produced by PyCifRW module
# 
#  This is a CIF file.  CIF has been adopted by the International
#  Union of Crystallography as the standard for data archiving and 
#  transmission.
#
#  For information on this file format, follow the CIF links at
#  http://www.iucr.org
##########################################################################

data_BaTi6O12
_symmetry_space_group_name_H-M          'P 1'
_cell_length_a                          8.51133759841
_cell_length_b                          8.51133759841
_cell_length_c                          8.51133759841
_cell_angle_alpha                       106.078229838
_cell_angle_beta                        116.493792406
_cell_angle_gamma                       106.078229838
_chemical_name_systematic               'Generated by pymatgen'
_symmetry_Int_Tables_number             1
_chemical_formula_structural            BaTi6O12
_chemical_formula_sum                   'Ba2 Ti12 O24'
_cell_volume                            469.237144973
_cell_formula_units_Z                   2
loop_
  _symmetry_equiv_pos_site_id
  _symmetry_equiv_pos_as_xyz
   1  'x, y, z'
 
loop_
  _atom_site_type_symbol
  _atom_site_label
  _atom_site_symmetry_multiplicity
  _atom_site_fract_x
  _atom_site_fract_y
  _atom_site_fract_z
  _atom_site_attached_hydrogens
  _atom_site_B_iso_or_equiv
  _atom_site_occupancy
   Ba  Ba1  1  0.385888  0.000000  0.385888  0  .  1
   Ba  Ba2  1  0.947445  0.000000  0.947445  0  .  1
   Ti  Ti3  1  0.481187  0.815492  0.998487  0  .  1
   Ti  Ti4  1  0.816845  0.820084  0.336572  0  .  1
   Ti  Ti5  1  0.852147  0.184508  0.334847  0  .  1
   Ti  Ti6  1  0.665695  0.482700  0.481187  0  .  1
   Ti  Ti7  1  0.996761  0.480272  0.816845  0  .  1
   Ti  Ti8  1  0.334847  0.482700  0.150338  0  .  1
   Ti  Ti9  1  0.667638  0.517300  0.852147  0  .  1
   Ti  Ti10  1  0.336572  0.519728  0.516489  0  .  1
   Ti  Ti11  1  0.998487  0.517300  0.182995  0  .  1
   Ti  Ti12  1  0.150338  0.815492  0.667638  0  .  1
   Ti  Ti13  1  0.516489  0.179916  0.996761  0  .  1
   Ti  Ti14  1  0.182995  0.184508  0.665695  0  .  1
   O  O15  1  0.969453  0.650661  0.014541  0  .  1
   O  O16  1  0.668020  0.709586  0.040309  0  .  1
   O  O17  1  0.002611  0.709586  0.374900  0  .  1
   O  O18  1  0.988303  0.955268  0.634306  0  .  1
   O  O19  1  0.654296  0.955268  0.300298  0  .  1
   O  O20  1  0.706598  0.376049  0.002784  0  .  1
   O  O21  1  0.626735  0.623951  0.330549  0  .  1
   O  O22  1  0.958434  0.627712  0.668020  0  .  1
   O  O23  1  0.679037  0.044732  0.033035  0  .  1
   O  O24  1  0.665313  0.290414  0.293025  0  .  1
   O  O25  1  0.300298  0.646003  0.345030  0  .  1
   O  O26  1  0.634306  0.646003  0.679037  0  .  1
   O  O27  1  0.363880  0.349339  0.318792  0  .  1
   O  O28  1  0.699027  0.353997  0.654296  0  .  1
   O  O29  1  0.330549  0.703814  0.706598  0  .  1
   O  O30  1  0.318792  0.954912  0.969453  0  .  1
   O  O31  1  0.374900  0.372288  0.665313  0  .  1
   O  O32  1  0.040309  0.372288  0.330722  0  .  1
   O  O33  1  0.293025  0.627712  0.002611  0  .  1
   O  O34  1  0.014541  0.045088  0.363880  0  .  1
   O  O35  1  0.345030  0.044732  0.699027  0  .  1
   O  O36  1  0.002784  0.296186  0.626735  0  .  1
   O  O37  1  0.330722  0.290414  0.958434  0  .  1
   O  O38  1  0.033035  0.353997  0.988303  0  .  1
 
