#\#CIF1.1
##########################################################################
#               Crystallographic Information Format file 
#               Produced by PyCifRW module
# 
#  This is a CIF file.  CIF has been adopted by the International
#  Union of Crystallography as the standard for data archiving and 
#  transmission.
#
#  For information on this file format, follow the CIF links at
#  http://www.iucr.org
##########################################################################

data_BaTiS3
_symmetry_space_group_name_H-M          'P 1'
_cell_length_a                          6.81262602
_cell_length_b                          6.81262602017
_cell_length_c                          5.83668117
_cell_angle_alpha                       90.0
_cell_angle_beta                        90.0
_cell_angle_gamma                       119.999999999
_chemical_name_systematic               'Generated by pymatgen'
_symmetry_Int_Tables_number             1
_chemical_formula_structural            BaTiS3
_chemical_formula_sum                   'Ba2 Ti2 S6'
_cell_volume                            234.598753436
_cell_formula_units_Z                   2
loop_
  _symmetry_equiv_pos_site_id
  _symmetry_equiv_pos_as_xyz
   1  'x, y, z'
 
loop_
  _atom_site_type_symbol
  _atom_site_label
  _atom_site_symmetry_multiplicity
  _atom_site_fract_x
  _atom_site_fract_y
  _atom_site_fract_z
  _atom_site_attached_hydrogens
  _atom_site_B_iso_or_equiv
  _atom_site_occupancy
   S  S1  1  0.834684  0.165316  0.750000  0  .  1
   S  S2  1  0.669369  0.834684  0.250000  0  .  1
   S  S3  1  0.165316  0.330631  0.250000  0  .  1
   S  S4  1  0.834684  0.669369  0.750000  0  .  1
   S  S5  1  0.165316  0.834684  0.250000  0  .  1
   S  S6  1  0.330631  0.165316  0.750000  0  .  1
   Ti  Ti7  1  0.000000  0.000000  0.000000  0  .  1
   Ti  Ti8  1  0.000000  0.000000  0.500000  0  .  1
   Ba  Ba9  1  0.333333  0.666667  0.750000  0  .  1
   Ba  Ba10  1  0.666667  0.333333  0.250000  0  .  1
 
