#\#CIF1.1
##########################################################################
#               Crystallographic Information Format file 
#               Produced by PyCifRW module
# 
#  This is a CIF file.  CIF has been adopted by the International
#  Union of Crystallography as the standard for data archiving and 
#  transmission.
#
#  For information on this file format, follow the CIF links at
#  http://www.iucr.org
##########################################################################

data_BaV10O15
_symmetry_space_group_name_H-M          'P 1'
_cell_length_a                          7.85939531381
_cell_length_b                          7.85939532057
_cell_length_c                          9.725328
_cell_angle_alpha                       90.0
_cell_angle_beta                        90.0
_cell_angle_gamma                       97.5033006699
_chemical_name_systematic               'Generated by pymatgen'
_symmetry_Int_Tables_number             1
_chemical_formula_structural            BaV10O15
_chemical_formula_sum                   'Ba2 V20 O30'
_cell_volume                            595.590547622
_cell_formula_units_Z                   2
loop_
  _symmetry_equiv_pos_site_id
  _symmetry_equiv_pos_as_xyz
   1  'x, y, z'
 
loop_
  _atom_site_type_symbol
  _atom_site_label
  _atom_site_symmetry_multiplicity
  _atom_site_fract_x
  _atom_site_fract_y
  _atom_site_fract_z
  _atom_site_attached_hydrogens
  _atom_site_B_iso_or_equiv
  _atom_site_occupancy
   O  O1  1  0.500000  0.500000  0.500000  0  .  1
   O  O2  1  0.000000  0.000000  0.000000  0  .  1
   O  O3  1  0.158257  0.158257  0.746225  0  .  1
   O  O4  1  0.341743  0.341743  0.246225  0  .  1
   O  O5  1  0.658257  0.658257  0.753775  0  .  1
   O  O6  1  0.841743  0.841743  0.253775  0  .  1
   O  O7  1  0.960538  0.210620  0.240905  0  .  1
   O  O8  1  0.539462  0.289380  0.740905  0  .  1
   O  O9  1  0.710620  0.460538  0.259095  0  .  1
   O  O10  1  0.789380  0.039462  0.759095  0  .  1
   O  O11  1  0.039462  0.789380  0.759095  0  .  1
   O  O12  1  0.460538  0.710620  0.259095  0  .  1
   O  O13  1  0.289380  0.539462  0.740905  0  .  1
   O  O14  1  0.210620  0.960538  0.240905  0  .  1
   O  O15  1  0.074190  0.574190  0.250000  0  .  1
   O  O16  1  0.425810  0.925810  0.750000  0  .  1
   O  O17  1  0.925810  0.425810  0.750000  0  .  1
   O  O18  1  0.574190  0.074190  0.250000  0  .  1
   O  O19  1  0.113744  0.362828  0.997707  0  .  1
   O  O20  1  0.386256  0.137172  0.497707  0  .  1
   O  O21  1  0.862828  0.613744  0.502293  0  .  1
   O  O22  1  0.637172  0.886256  0.002293  0  .  1
   O  O23  1  0.238949  0.761051  0.000000  0  .  1
   O  O24  1  0.261051  0.738949  0.500000  0  .  1
   O  O25  1  0.761051  0.238949  0.000000  0  .  1
   O  O26  1  0.738949  0.261051  0.500000  0  .  1
   O  O27  1  0.362828  0.113744  0.997707  0  .  1
   O  O28  1  0.137172  0.386256  0.497707  0  .  1
   O  O29  1  0.613744  0.862828  0.502293  0  .  1
   O  O30  1  0.886256  0.637172  0.002293  0  .  1
   V  V31  1  0.908269  0.420091  0.119868  0  .  1
   V  V32  1  0.591731  0.079909  0.619868  0  .  1
   V  V33  1  0.920091  0.408269  0.380132  0  .  1
   V  V34  1  0.579909  0.091731  0.880132  0  .  1
   V  V35  1  0.091731  0.579909  0.880132  0  .  1
   V  V36  1  0.408269  0.920091  0.380132  0  .  1
   V  V37  1  0.079909  0.591731  0.619868  0  .  1
   V  V38  1  0.420091  0.908269  0.119868  0  .  1
   V  V39  1  0.039927  0.785289  0.141060  0  .  1
   V  V40  1  0.460073  0.714711  0.641060  0  .  1
   V  V41  1  0.285289  0.539927  0.358940  0  .  1
   V  V42  1  0.214711  0.960073  0.858940  0  .  1
   V  V43  1  0.960073  0.214711  0.858940  0  .  1
   V  V44  1  0.539927  0.285289  0.358940  0  .  1
   V  V45  1  0.714711  0.460073  0.641060  0  .  1
   V  V46  1  0.785289  0.039927  0.141060  0  .  1
   V  V47  1  0.819847  0.819847  0.865047  0  .  1
   V  V48  1  0.680153  0.680153  0.365047  0  .  1
   V  V49  1  0.319847  0.319847  0.634953  0  .  1
   V  V50  1  0.180153  0.180153  0.134953  0  .  1
   Ba  Ba51  1  0.000000  0.000000  0.500000  0  .  1
   Ba  Ba52  1  0.500000  0.500000  0.000000  0  .  1
 
