#\#CIF1.1
##########################################################################
#               Crystallographic Information Format file 
#               Produced by PyCifRW module
# 
#  This is a CIF file.  CIF has been adopted by the International
#  Union of Crystallography as the standard for data archiving and 
#  transmission.
#
#  For information on this file format, follow the CIF links at
#  http://www.iucr.org
##########################################################################

data_BaV2CuO7
_symmetry_space_group_name_H-M          'P 1'
_cell_length_a                          5.58664355
_cell_length_b                          7.59745383
_cell_length_c                          15.35348845
_cell_angle_alpha                       90.0
_cell_angle_beta                        90.0
_cell_angle_gamma                       90.0
_chemical_name_systematic               'Generated by pymatgen'
_symmetry_Int_Tables_number             1
_chemical_formula_structural            BaV2CuO7
_chemical_formula_sum                   'Ba4 V8 Cu4 O28'
_cell_volume                            651.667554491
_cell_formula_units_Z                   4
loop_
  _symmetry_equiv_pos_site_id
  _symmetry_equiv_pos_as_xyz
   1  'x, y, z'
 
loop_
  _atom_site_type_symbol
  _atom_site_label
  _atom_site_symmetry_multiplicity
  _atom_site_fract_x
  _atom_site_fract_y
  _atom_site_fract_z
  _atom_site_attached_hydrogens
  _atom_site_B_iso_or_equiv
  _atom_site_occupancy
   Ba  Ba1  1  0.250000  0.883678  0.299797  0  .  1
   Ba  Ba2  1  0.750000  0.116322  0.700203  0  .  1
   Ba  Ba3  1  0.750000  0.383678  0.200203  0  .  1
   Ba  Ba4  1  0.250000  0.616322  0.799797  0  .  1
   V  V5  1  0.250000  0.886469  0.590761  0  .  1
   V  V6  1  0.750000  0.113531  0.409239  0  .  1
   V  V7  1  0.750000  0.386469  0.909239  0  .  1
   V  V8  1  0.250000  0.613531  0.090761  0  .  1
   V  V9  1  0.250000  0.142959  0.106749  0  .  1
   V  V10  1  0.750000  0.857041  0.893251  0  .  1
   V  V11  1  0.750000  0.642959  0.393251  0  .  1
   V  V12  1  0.250000  0.357041  0.606749  0  .  1
   Cu  Cu13  1  0.250000  0.385624  0.368014  0  .  1
   Cu  Cu14  1  0.750000  0.614376  0.631986  0  .  1
   Cu  Cu15  1  0.750000  0.885624  0.131986  0  .  1
   Cu  Cu16  1  0.250000  0.114376  0.868014  0  .  1
   O  O17  1  0.250000  0.417587  0.503656  0  .  1
   O  O18  1  0.750000  0.582413  0.496344  0  .  1
   O  O19  1  0.750000  0.917587  0.996344  0  .  1
   O  O20  1  0.250000  0.082413  0.003656  0  .  1
   O  O21  1  0.250000  0.118603  0.627382  0  .  1
   O  O22  1  0.750000  0.881397  0.372618  0  .  1
   O  O23  1  0.750000  0.618603  0.872618  0  .  1
   O  O24  1  0.250000  0.381397  0.127382  0  .  1
   O  O25  1  0.250000  0.862752  0.482673  0  .  1
   O  O26  1  0.750000  0.137248  0.517327  0  .  1
   O  O27  1  0.750000  0.362752  0.017327  0  .  1
   O  O28  1  0.250000  0.637248  0.982673  0  .  1
   O  O29  1  0.501529  0.797188  0.642297  0  .  1
   O  O30  1  0.001529  0.202812  0.357703  0  .  1
   O  O31  1  0.498471  0.297188  0.857703  0  .  1
   O  O32  1  0.998471  0.702812  0.142297  0  .  1
   O  O33  1  0.498471  0.202812  0.357703  0  .  1
   O  O34  1  0.998471  0.797188  0.642297  0  .  1
   O  O35  1  0.501529  0.702812  0.142297  0  .  1
   O  O36  1  0.001529  0.297188  0.857703  0  .  1
   O  O37  1  0.498311  0.561832  0.337034  0  .  1
   O  O38  1  0.998311  0.438168  0.662966  0  .  1
   O  O39  1  0.501689  0.061832  0.162966  0  .  1
   O  O40  1  0.001689  0.938168  0.837034  0  .  1
   O  O41  1  0.501689  0.438168  0.662966  0  .  1
   O  O42  1  0.001689  0.561832  0.337034  0  .  1
   O  O43  1  0.498311  0.938168  0.837034  0  .  1
   O  O44  1  0.998311  0.061832  0.162966  0  .  1
 
