#\#CIF1.1
##########################################################################
#               Crystallographic Information Format file 
#               Produced by PyCifRW module
# 
#  This is a CIF file.  CIF has been adopted by the International
#  Union of Crystallography as the standard for data archiving and 
#  transmission.
#
#  For information on this file format, follow the CIF links at
#  http://www.iucr.org
##########################################################################

data_BaV3O8
_symmetry_space_group_name_H-M          'P 1'
_cell_length_a                          5.63805898
_cell_length_b                          7.60944199612
_cell_length_c                          8.38260297505
_cell_angle_alpha                       107.404009571
_cell_angle_beta                        90.0
_cell_angle_gamma                       90.0
_chemical_name_systematic               'Generated by pymatgen'
_symmetry_Int_Tables_number             1
_chemical_formula_structural            BaV3O8
_chemical_formula_sum                   'Ba2 V6 O16'
_cell_volume                            343.170197241
_cell_formula_units_Z                   2
loop_
  _symmetry_equiv_pos_site_id
  _symmetry_equiv_pos_as_xyz
   1  'x, y, z'
 
loop_
  _atom_site_type_symbol
  _atom_site_label
  _atom_site_symmetry_multiplicity
  _atom_site_fract_x
  _atom_site_fract_y
  _atom_site_fract_z
  _atom_site_attached_hydrogens
  _atom_site_B_iso_or_equiv
  _atom_site_occupancy
   O  O1  1  0.502162  0.167089  0.567106  0  .  1
   O  O2  1  0.002162  0.832912  0.432893  0  .  1
   O  O3  1  0.502100  0.817297  0.311031  0  .  1
   O  O4  1  0.002099  0.182703  0.688970  0  .  1
   O  O5  1  0.002045  0.176457  0.016550  0  .  1
   O  O6  1  0.502045  0.823544  0.983449  0  .  1
   O  O7  1  0.756145  0.129619  0.271667  0  .  1
   O  O8  1  0.256146  0.870382  0.728334  0  .  1
   O  O9  1  0.755277  0.523644  0.798851  0  .  1
   O  O10  1  0.255277  0.476355  0.201148  0  .  1
   O  O11  1  0.502260  0.572333  0.514559  0  .  1
   O  O12  1  0.002260  0.427668  0.485441  0  .  1
   O  O13  1  0.250816  0.130434  0.270858  0  .  1
   O  O14  1  0.749051  0.475950  0.201259  0  .  1
   O  O15  1  0.750816  0.869566  0.729142  0  .  1
   O  O16  1  0.249051  0.524049  0.798741  0  .  1
   V  V17  1  0.502259  0.585006  0.318109  0  .  1
   V  V18  1  0.002260  0.414993  0.681892  0  .  1
   V  V19  1  0.002624  0.294718  0.222198  0  .  1
   V  V20  1  0.502624  0.705281  0.777802  0  .  1
   V  V21  1  0.002832  0.931217  0.638671  0  .  1
   V  V22  1  0.502834  0.068782  0.361328  0  .  1
   Ba  Ba23  1  0.502825  0.215024  0.899046  0  .  1
   Ba  Ba24  1  0.002825  0.784976  0.100954  0  .  1
 
