#\#CIF1.1
##########################################################################
#               Crystallographic Information Format file 
#               Produced by PyCifRW module
# 
#  This is a CIF file.  CIF has been adopted by the International
#  Union of Crystallography as the standard for data archiving and 
#  transmission.
#
#  For information on this file format, follow the CIF links at
#  http://www.iucr.org
##########################################################################

data_Be(CoO2)2
_symmetry_space_group_name_H-M          'P 1'
_cell_length_a                          5.46979725397
_cell_length_b                          5.46979725397
_cell_length_c                          5.46979725397
_cell_angle_alpha                       60.0
_cell_angle_beta                        90.0
_cell_angle_gamma                       120.0
_chemical_name_systematic               'Generated by pymatgen'
_symmetry_Int_Tables_number             1
_chemical_formula_structural            Be(CoO2)2
_chemical_formula_sum                   'Be2 Co4 O8'
_cell_volume                            115.717405771
_cell_formula_units_Z                   2
loop_
  _symmetry_equiv_pos_site_id
  _symmetry_equiv_pos_as_xyz
   1  'x, y, z'
 
loop_
  _atom_site_type_symbol
  _atom_site_label
  _atom_site_symmetry_multiplicity
  _atom_site_fract_x
  _atom_site_fract_y
  _atom_site_fract_z
  _atom_site_attached_hydrogens
  _atom_site_B_iso_or_equiv
  _atom_site_occupancy
   Be  Be1  1  0.000000  0.000000  0.000000  0  .  1
   Be  Be2  1  0.250000  0.500000  0.250000  0  .  1
   Co  Co3  1  0.625000  0.250000  0.125000  0  .  1
   Co  Co4  1  0.625000  0.250000  0.625000  0  .  1
   Co  Co5  1  0.625000  0.750000  0.625000  0  .  1
   Co  Co6  1  0.125000  0.750000  0.625000  0  .  1
   O  O7  1  0.867787  0.245192  0.377405  0  .  1
   O  O8  1  0.872595  0.254808  0.872595  0  .  1
   O  O9  1  0.872595  0.745192  0.382213  0  .  1
   O  O10  1  0.377405  0.245192  0.377405  0  .  1
   O  O11  1  0.377405  0.754808  0.377405  0  .  1
   O  O12  1  0.382213  0.254808  0.872595  0  .  1
   O  O13  1  0.872595  0.745192  0.872595  0  .  1
   O  O14  1  0.377405  0.754808  0.867787  0  .  1
 
