#\#CIF1.1
##########################################################################
#               Crystallographic Information Format file 
#               Produced by PyCifRW module
# 
#  This is a CIF file.  CIF has been adopted by the International
#  Union of Crystallography as the standard for data archiving and 
#  transmission.
#
#  For information on this file format, follow the CIF links at
#  http://www.iucr.org
##########################################################################

data_BeZnO2
_symmetry_space_group_name_H-M          'P 1'
_cell_length_a                          4.30880004155
_cell_length_b                          4.30879873609
_cell_length_c                          5.03362369291
_cell_angle_alpha                       115.339530432
_cell_angle_beta                        115.339547588
_cell_angle_gamma                       90.0013980236
_chemical_name_systematic               'Generated by pymatgen'
_symmetry_Int_Tables_number             1
_chemical_formula_structural            BeZnO2
_chemical_formula_sum                   'Be2 Zn2 O4'
_cell_volume                            74.3908538754
_cell_formula_units_Z                   2
loop_
  _symmetry_equiv_pos_site_id
  _symmetry_equiv_pos_as_xyz
   1  'x, y, z'
 
loop_
  _atom_site_type_symbol
  _atom_site_label
  _atom_site_symmetry_multiplicity
  _atom_site_fract_x
  _atom_site_fract_y
  _atom_site_fract_z
  _atom_site_attached_hydrogens
  _atom_site_B_iso_or_equiv
  _atom_site_occupancy
   Be  Be1  1  0.250010  0.749977  0.499993  0  .  1
   O  O2  1  0.124989  0.689684  0.749992  0  .  1
   O  O3  1  0.939685  0.874988  0.249992  0  .  1
   Be  Be4  1  0.999977  0.000013  0.999993  0  .  1
   O  O5  1  0.310330  0.375000  0.250003  0  .  1
   O  O6  1  0.625000  0.060329  0.750004  0  .  1
   Zn  Zn7  1  0.750009  0.249999  0.500012  0  .  1
   Zn  Zn8  1  0.500000  0.500009  0.000012  0  .  1
 
