#\#CIF1.1
##########################################################################
#               Crystallographic Information Format file 
#               Produced by PyCifRW module
# 
#  This is a CIF file.  CIF has been adopted by the International
#  Union of Crystallography as the standard for data archiving and 
#  transmission.
#
#  For information on this file format, follow the CIF links at
#  http://www.iucr.org
##########################################################################

data_Ca(AsRu)2
_symmetry_space_group_name_H-M          'P 1'
_cell_length_a                          4.2203761631
_cell_length_b                          4.22037616725
_cell_length_c                          6.00141587392
_cell_angle_alpha                       110.586130093
_cell_angle_beta                        110.586130101
_cell_angle_gamma                       89.9999998893
_chemical_name_systematic               'Generated by pymatgen'
_symmetry_Int_Tables_number             1
_chemical_formula_structural            Ca(AsRu)2
_chemical_formula_sum                   'Ca1 As2 Ru2'
_cell_volume                            92.7420589875
_cell_formula_units_Z                   1
loop_
  _symmetry_equiv_pos_site_id
  _symmetry_equiv_pos_as_xyz
   1  'x, y, z'
 
loop_
  _atom_site_type_symbol
  _atom_site_label
  _atom_site_symmetry_multiplicity
  _atom_site_fract_x
  _atom_site_fract_y
  _atom_site_fract_z
  _atom_site_attached_hydrogens
  _atom_site_B_iso_or_equiv
  _atom_site_occupancy
   Ca  Ca1  1  0.000000  0.000000  0.000000  0  .  1
   As  As2  1  0.367097  0.367097  0.734195  0  .  1
   As  As3  1  0.632903  0.632903  0.265805  0  .  1
   Ru  Ru4  1  0.750000  0.250000  0.500000  0  .  1
   Ru  Ru5  1  0.250000  0.750000  0.500000  0  .  1
 
