#\#CIF1.1
##########################################################################
#               Crystallographic Information Format file 
#               Produced by PyCifRW module
# 
#  This is a CIF file.  CIF has been adopted by the International
#  Union of Crystallography as the standard for data archiving and 
#  transmission.
#
#  For information on this file format, follow the CIF links at
#  http://www.iucr.org
##########################################################################

data_Ca(Cu2P)2
_symmetry_space_group_name_H-M          'P 1'
_cell_length_a                          3.78923328
_cell_length_b                          7.28011912
_cell_length_c                          7.28011912
_cell_angle_alpha                       90.0
_cell_angle_beta                        90.0
_cell_angle_gamma                       90.0
_chemical_name_systematic               'Generated by pymatgen'
_symmetry_Int_Tables_number             1
_chemical_formula_structural            Ca(Cu2P)2
_chemical_formula_sum                   'Ca2 Cu8 P4'
_cell_volume                            200.829873118
_cell_formula_units_Z                   2
loop_
  _symmetry_equiv_pos_site_id
  _symmetry_equiv_pos_as_xyz
   1  'x, y, z'
 
loop_
  _atom_site_type_symbol
  _atom_site_label
  _atom_site_symmetry_multiplicity
  _atom_site_fract_x
  _atom_site_fract_y
  _atom_site_fract_z
  _atom_site_attached_hydrogens
  _atom_site_B_iso_or_equiv
  _atom_site_occupancy
   P  P1  1  0.000000  0.719572  0.719572  0  .  1
   P  P2  1  0.000000  0.280428  0.280428  0  .  1
   P  P3  1  0.500000  0.219572  0.780428  0  .  1
   P  P4  1  0.500000  0.780428  0.219572  0  .  1
   Ca  Ca5  1  0.500000  0.500000  0.500000  0  .  1
   Ca  Ca6  1  0.000000  0.000000  0.000000  0  .  1
   Cu  Cu7  1  0.000000  0.416264  0.835544  0  .  1
   Cu  Cu8  1  0.500000  0.083736  0.335544  0  .  1
   Cu  Cu9  1  0.000000  0.164456  0.583736  0  .  1
   Cu  Cu10  1  0.000000  0.835544  0.416264  0  .  1
   Cu  Cu11  1  0.500000  0.664456  0.916264  0  .  1
   Cu  Cu12  1  0.500000  0.335544  0.083736  0  .  1
   Cu  Cu13  1  0.000000  0.583736  0.164456  0  .  1
   Cu  Cu14  1  0.500000  0.916264  0.664456  0  .  1
 
