#\#CIF1.1
##########################################################################
#               Crystallographic Information Format file 
#               Produced by PyCifRW module
# 
#  This is a CIF file.  CIF has been adopted by the International
#  Union of Crystallography as the standard for data archiving and 
#  transmission.
#
#  For information on this file format, follow the CIF links at
#  http://www.iucr.org
##########################################################################

data_Ca(CoAs)2
_symmetry_space_group_name_H-M          'P 1'
_cell_length_a                          4.01580734416
_cell_length_b                          4.01580694411
_cell_length_c                          5.87364823007
_cell_angle_alpha                       109.989600327
_cell_angle_beta                        109.989598314
_cell_angle_gamma                       89.9999931682
_chemical_name_systematic               'Generated by pymatgen'
_symmetry_Int_Tables_number             1
_chemical_formula_structural            Ca(CoAs)2
_chemical_formula_sum                   'Ca1 Co2 As2'
_cell_volume                            82.9176045706
_cell_formula_units_Z                   1
loop_
  _symmetry_equiv_pos_site_id
  _symmetry_equiv_pos_as_xyz
   1  'x, y, z'
 
loop_
  _atom_site_type_symbol
  _atom_site_label
  _atom_site_symmetry_multiplicity
  _atom_site_fract_x
  _atom_site_fract_y
  _atom_site_fract_z
  _atom_site_attached_hydrogens
  _atom_site_B_iso_or_equiv
  _atom_site_occupancy
   Ca  Ca1  1  0.000000  0.000000  0.000000  0  .  1
   Co  Co2  1  0.250000  0.750000  0.500000  0  .  1
   Co  Co3  1  0.750000  0.250000  0.500000  0  .  1
   As  As4  1  0.365452  0.365452  0.730903  0  .  1
   As  As5  1  0.634548  0.634548  0.269097  0  .  1
 
