#\#CIF1.1
##########################################################################
#               Crystallographic Information Format file 
#               Produced by PyCifRW module
# 
#  This is a CIF file.  CIF has been adopted by the International
#  Union of Crystallography as the standard for data archiving and 
#  transmission.
#
#  For information on this file format, follow the CIF links at
#  http://www.iucr.org
##########################################################################

data_Ca(CuO)2
_symmetry_space_group_name_H-M          'P 1'
_cell_length_a                          6.05882760987
_cell_length_b                          6.05882760987
_cell_length_c                          6.05882760987
_cell_angle_alpha                       127.766889042
_cell_angle_beta                        127.766889042
_cell_angle_gamma                       77.0029639596
_chemical_name_systematic               'Generated by pymatgen'
_symmetry_Int_Tables_number             1
_chemical_formula_structural            Ca(CuO)2
_chemical_formula_sum                   'Ca2 Cu4 O4'
_cell_volume                            134.914489756
_cell_formula_units_Z                   2
loop_
  _symmetry_equiv_pos_site_id
  _symmetry_equiv_pos_as_xyz
   1  'x, y, z'
 
loop_
  _atom_site_type_symbol
  _atom_site_label
  _atom_site_symmetry_multiplicity
  _atom_site_fract_x
  _atom_site_fract_y
  _atom_site_fract_z
  _atom_site_attached_hydrogens
  _atom_site_B_iso_or_equiv
  _atom_site_occupancy
   Ca  Ca1  1  0.000000  0.000000  0.000000  0  .  1
   Ca  Ca2  1  0.750000  0.250000  0.500000  0  .  1
   Cu  Cu3  1  0.875000  0.625000  0.250000  0  .  1
   Cu  Cu4  1  0.375000  0.625000  0.250000  0  .  1
   Cu  Cu5  1  0.375000  0.125000  0.750000  0  .  1
   Cu  Cu6  1  0.375000  0.625000  0.750000  0  .  1
   O  O7  1  0.238929  0.238929  0.000000  0  .  1
   O  O8  1  0.511071  0.011071  0.500000  0  .  1
   O  O9  1  0.761071  0.761071  0.000000  0  .  1
   O  O10  1  0.988929  0.488929  0.500000  0  .  1
 
