#\#CIF1.1
##########################################################################
#               Crystallographic Information Format file 
#               Produced by PyCifRW module
# 
#  This is a CIF file.  CIF has been adopted by the International
#  Union of Crystallography as the standard for data archiving and 
#  transmission.
#
#  For information on this file format, follow the CIF links at
#  http://www.iucr.org
##########################################################################

data_Ca(Fe2O3)2
_symmetry_space_group_name_H-M          'P 1'
_cell_length_a                          3.06453804
_cell_length_b                          5.37990144868
_cell_length_c                          15.35916967
_cell_angle_alpha                       90.0
_cell_angle_beta                        90.0
_cell_angle_gamma                       106.547706008
_chemical_name_systematic               'Generated by pymatgen'
_symmetry_Int_Tables_number             1
_chemical_formula_structural            Ca(Fe2O3)2
_chemical_formula_sum                   'Ca2 Fe8 O12'
_cell_volume                            242.737437493
_cell_formula_units_Z                   2
loop_
  _symmetry_equiv_pos_site_id
  _symmetry_equiv_pos_as_xyz
   1  'x, y, z'
 
loop_
  _atom_site_type_symbol
  _atom_site_label
  _atom_site_symmetry_multiplicity
  _atom_site_fract_x
  _atom_site_fract_y
  _atom_site_fract_z
  _atom_site_attached_hydrogens
  _atom_site_B_iso_or_equiv
  _atom_site_occupancy
   O  O1  1  0.499999  0.000000  0.500000  0  .  1
   O  O2  1  0.499999  0.000000  0.000000  0  .  1
   O  O3  1  0.033212  0.066423  0.842019  0  .  1
   O  O4  1  0.966788  0.933577  0.157982  0  .  1
   O  O5  1  0.966788  0.933577  0.342018  0  .  1
   O  O6  1  0.033212  0.066423  0.657982  0  .  1
   O  O7  1  0.785168  0.570338  0.915552  0  .  1
   O  O8  1  0.214831  0.429663  0.084448  0  .  1
   O  O9  1  0.214831  0.429663  0.415552  0  .  1
   O  O10  1  0.785168  0.570338  0.584448  0  .  1
   O  O11  1  0.322781  0.645563  0.750000  0  .  1
   O  O12  1  0.677217  0.354436  0.250000  0  .  1
   Ca  Ca13  1  0.656064  0.312129  0.750000  0  .  1
   Ca  Ca14  1  0.343936  0.687871  0.250000  0  .  1
   Fe  Fe15  1  0.865048  0.730099  0.043893  0  .  1
   Fe  Fe16  1  0.403744  0.807487  0.633691  0  .  1
   Fe  Fe17  1  0.134950  0.269900  0.956107  0  .  1
   Fe  Fe18  1  0.596256  0.192513  0.366310  0  .  1
   Fe  Fe19  1  0.865048  0.730099  0.456107  0  .  1
   Fe  Fe20  1  0.134950  0.269900  0.543893  0  .  1
   Fe  Fe21  1  0.596256  0.192513  0.133690  0  .  1
   Fe  Fe22  1  0.403744  0.807487  0.866309  0  .  1
 
