#\#CIF1.1
##########################################################################
#               Crystallographic Information Format file 
#               Produced by PyCifRW module
# 
#  This is a CIF file.  CIF has been adopted by the International
#  Union of Crystallography as the standard for data archiving and 
#  transmission.
#
#  For information on this file format, follow the CIF links at
#  http://www.iucr.org
##########################################################################

data_Ca19(Cu12O23)2
_symmetry_space_group_name_H-M          'P 1'
_cell_length_a                          10.9300056315
_cell_length_b                          6.4711329243
_cell_length_c                          16.9517048194
_cell_angle_alpha                       89.8728076565
_cell_angle_beta                        105.073575039
_cell_angle_gamma                       90.142395136
_chemical_name_systematic               'Generated by pymatgen'
_symmetry_Int_Tables_number             1
_chemical_formula_structural            Ca19(Cu12O23)2
_chemical_formula_sum                   'Ca19 Cu24 O46'
_cell_volume                            1157.72692007
_cell_formula_units_Z                   1
loop_
  _symmetry_equiv_pos_site_id
  _symmetry_equiv_pos_as_xyz
   1  'x, y, z'
 
loop_
  _atom_site_type_symbol
  _atom_site_label
  _atom_site_symmetry_multiplicity
  _atom_site_fract_x
  _atom_site_fract_y
  _atom_site_fract_z
  _atom_site_attached_hydrogens
  _atom_site_B_iso_or_equiv
  _atom_site_occupancy
   Ca  Ca1  1  0.251588  0.251340  0.955173  0  .  1
   Ca  Ca2  1  0.253729  0.250478  0.759301  0  .  1
   Ca  Ca3  1  0.245141  0.744932  0.649497  0  .  1
   Ca  Ca4  1  0.249086  0.249916  0.554569  0  .  1
   Ca  Ca5  1  0.252508  0.748190  0.455511  0  .  1
   Ca  Ca6  1  0.255054  0.250855  0.360376  0  .  1
   Ca  Ca7  1  0.250884  0.753474  0.254935  0  .  1
   Ca  Ca8  1  0.244317  0.254464  0.149539  0  .  1
   Ca  Ca9  1  0.248685  0.750744  0.036744  0  .  1
   Ca  Ca10  1  0.748401  0.251743  0.947478  0  .  1
   Ca  Ca11  1  0.751877  0.740883  0.848515  0  .  1
   Ca  Ca12  1  0.749349  0.244310  0.738493  0  .  1
   Ca  Ca13  1  0.748981  0.751171  0.639089  0  .  1
   Ca  Ca14  1  0.747053  0.252227  0.541770  0  .  1
   Ca  Ca15  1  0.751680  0.750723  0.446098  0  .  1
   Ca  Ca16  1  0.755966  0.254170  0.348505  0  .  1
   Ca  Ca17  1  0.747929  0.753914  0.241455  0  .  1
   Ca  Ca18  1  0.747174  0.248503  0.141503  0  .  1
   Ca  Ca19  1  0.748415  0.750956  0.042941  0  .  1
   Cu  Cu20  1  0.005013  0.481314  0.916696  0  .  1
   Cu  Cu21  1  0.002883  0.974008  0.834324  0  .  1
   Cu  Cu22  1  0.000677  0.475306  0.749934  0  .  1
   Cu  Cu23  1  0.001289  0.999492  0.503825  0  .  1
   Cu  Cu24  1  0.003965  0.514184  0.418602  0  .  1
   Cu  Cu25  1  0.003921  0.017044  0.334982  0  .  1
   Cu  Cu26  1  0.999852  0.520700  0.249813  0  .  1
   Cu  Cu27  1  0.996954  0.005306  0.999050  0  .  1
   Cu  Cu28  1  0.500913  0.500226  0.919500  0  .  1
   Cu  Cu29  1  0.498570  0.995633  0.833697  0  .  1
   Cu  Cu30  1  0.501736  0.478370  0.754227  0  .  1
   Cu  Cu31  1  0.497710  0.993398  0.666740  0  .  1
   Cu  Cu32  1  0.497524  0.495793  0.586403  0  .  1
   Cu  Cu33  1  0.500694  0.999359  0.501223  0  .  1
   Cu  Cu34  1  0.501249  0.504633  0.418345  0  .  1
   Cu  Cu35  1  0.501435  0.006913  0.334048  0  .  1
   Cu  Cu36  1  0.499139  0.503075  0.249845  0  .  1
   Cu  Cu37  1  0.497770  0.004325  0.165291  0  .  1
   Cu  Cu38  1  0.501028  0.498569  0.083011  0  .  1
   Cu  Cu39  1  0.497209  0.005236  0.997572  0  .  1
   Cu  Cu40  1  0.994787  0.999628  0.667396  0  .  1
   Cu  Cu41  1  0.997439  0.485958  0.581957  0  .  1
   Cu  Cu42  1  0.997686  0.016267  0.166149  0  .  1
   Cu  Cu43  1  0.996777  0.515682  0.080829  0  .  1
   O  O44  1  0.117973  0.957101  0.938783  0  .  1
   O  O45  1  0.123822  0.420009  0.846031  0  .  1
   O  O46  1  0.117838  0.497346  0.689071  0  .  1
   O  O47  1  0.122514  0.041423  0.613087  0  .  1
   O  O48  1  0.125719  0.558808  0.524215  0  .  1
   O  O49  1  0.126502  0.056164  0.437494  0  .  1
   O  O50  1  0.125418  0.548528  0.349136  0  .  1
   O  O51  1  0.383841  0.547151  0.982115  0  .  1
   O  O52  1  0.121021  0.029578  0.269630  0  .  1
   O  O53  1  0.383264  0.089931  0.889774  0  .  1
   O  O54  1  0.115519  0.501128  0.187207  0  .  1
   O  O55  1  0.116855  0.965566  0.102619  0  .  1
   O  O56  1  0.377691  0.986622  0.731789  0  .  1
   O  O57  1  0.124996  0.445553  0.023299  0  .  1
   O  O58  1  0.369994  0.450554  0.658458  0  .  1
   O  O59  1  0.375179  0.943129  0.565386  0  .  1
   O  O60  1  0.376218  0.438851  0.480380  0  .  1
   O  O61  1  0.380619  0.949914  0.393162  0  .  1
   O  O62  1  0.620355  0.947436  0.933896  0  .  1
   O  O63  1  0.381321  0.478754  0.311320  0  .  1
   O  O64  1  0.612633  0.468854  0.854780  0  .  1
   O  O65  1  0.380938  0.013976  0.230806  0  .  1
   O  O66  1  0.618644  0.988075  0.770771  0  .  1
   O  O67  1  0.379437  0.536012  0.147151  0  .  1
   O  O68  1  0.623341  0.530003  0.688034  0  .  1
   O  O69  1  0.376129  0.052800  0.064276  0  .  1
   O  O70  1  0.621860  0.054020  0.608423  0  .  1
   O  O71  1  0.623822  0.562622  0.520579  0  .  1
   O  O72  1  0.623229  0.052770  0.434138  0  .  1
   O  O73  1  0.621700  0.534210  0.349345  0  .  1
   O  O74  1  0.875499  0.557582  0.975042  0  .  1
   O  O75  1  0.618858  0.011629  0.269144  0  .  1
   O  O76  1  0.874585  0.034613  0.897728  0  .  1
   O  O77  1  0.617129  0.475715  0.188349  0  .  1
   O  O78  1  0.883670  0.495010  0.811898  0  .  1
   O  O79  1  0.619717  0.946392  0.106388  0  .  1
   O  O80  1  0.888435  0.969878  0.734065  0  .  1
   O  O81  1  0.630875  0.437741  0.028950  0  .  1
   O  O82  1  0.875568  0.450357  0.650229  0  .  1
   O  O83  1  0.867612  0.937289  0.558176  0  .  1
   O  O84  1  0.875349  0.443354  0.475702  0  .  1
   O  O85  1  0.883622  0.967865  0.393820  0  .  1
   O  O86  1  0.883613  0.504169  0.312244  0  .  1
   O  O87  1  0.880462  0.029619  0.233447  0  .  1
   O  O88  1  0.874686  0.549689  0.150586  0  .  1
   O  O89  1  0.874128  0.057448  0.062396  0  .  1
 
