#\#CIF1.1
##########################################################################
#               Crystallographic Information Format file 
#               Produced by PyCifRW module
# 
#  This is a CIF file.  CIF has been adopted by the International
#  Union of Crystallography as the standard for data archiving and 
#  transmission.
#
#  For information on this file format, follow the CIF links at
#  http://www.iucr.org
##########################################################################

data_Ca2(Fe2O3)11
_symmetry_space_group_name_H-M          'P 1'
_cell_length_a                          21.2799224866
_cell_length_b                          21.2799223688
_cell_length_c                          21.2799221194
_cell_angle_alpha                       16.2203029841
_cell_angle_beta                        16.2203040588
_cell_angle_gamma                       16.220303855
_chemical_name_systematic               'Generated by pymatgen'
_symmetry_Int_Tables_number             1
_chemical_formula_structural            Ca2(Fe2O3)11
_chemical_formula_sum                   'Ca2 Fe22 O33'
_cell_volume                            655.497056345
_cell_formula_units_Z                   1
loop_
  _symmetry_equiv_pos_site_id
  _symmetry_equiv_pos_as_xyz
   1  'x, y, z'
 
loop_
  _atom_site_type_symbol
  _atom_site_label
  _atom_site_symmetry_multiplicity
  _atom_site_fract_x
  _atom_site_fract_y
  _atom_site_fract_z
  _atom_site_attached_hydrogens
  _atom_site_B_iso_or_equiv
  _atom_site_occupancy
   Ca  Ca1  1  0.951352  0.951352  0.951352  0  .  1
   Ca  Ca2  1  0.048648  0.048648  0.048648  0  .  1
   Fe  Fe3  1  0.500000  0.000328  0.999672  0  .  1
   Fe  Fe4  1  0.909397  0.423678  0.406219  0  .  1
   Fe  Fe5  1  0.205869  0.205869  0.205869  0  .  1
   Fe  Fe6  1  0.794131  0.794131  0.794131  0  .  1
   Fe  Fe7  1  0.593781  0.576322  0.090603  0  .  1
   Fe  Fe8  1  0.000328  0.999672  0.500000  0  .  1
   Fe  Fe9  1  0.117272  0.117272  0.117272  0  .  1
   Fe  Fe10  1  0.530138  0.530138  0.530138  0  .  1
   Fe  Fe11  1  0.576322  0.090603  0.593781  0  .  1
   Fe  Fe12  1  0.334677  0.000000  0.665323  0  .  1
   Fe  Fe13  1  0.469862  0.469862  0.469862  0  .  1
   Fe  Fe14  1  0.380263  0.380263  0.380263  0  .  1
   Fe  Fe15  1  0.665323  0.334677  1.000000  0  .  1
   Fe  Fe16  1  0.619737  0.619737  0.619737  0  .  1
   Fe  Fe17  1  0.703613  0.703613  0.703613  0  .  1
   Fe  Fe18  1  0.406219  0.909397  0.423678  0  .  1
   Fe  Fe19  1  0.000000  0.665323  0.334677  0  .  1
   Fe  Fe20  1  0.296387  0.296387  0.296387  0  .  1
   Fe  Fe21  1  0.882728  0.882728  0.882728  0  .  1
   Fe  Fe22  1  0.423678  0.406219  0.909397  0  .  1
   Fe  Fe23  1  0.999672  0.500000  0.000328  0  .  1
   Fe  Fe24  1  0.090603  0.593781  0.576322  0  .  1
   O  O25  1  0.853480  0.853480  0.853480  0  .  1
   O  O26  1  0.330125  0.330125  0.330125  0  .  1
   O  O27  1  0.240128  0.266832  0.701164  0  .  1
   O  O28  1  0.146520  0.146520  0.146520  0  .  1
   O  O29  1  0.128850  0.653941  0.654615  0  .  1
   O  O30  1  0.593324  0.354571  0.955832  0  .  1
   O  O31  1  0.654615  0.128850  0.653941  0  .  1
   O  O32  1  0.759872  0.298836  0.733168  0  .  1
   O  O33  1  0.354571  0.955832  0.593324  0  .  1
   O  O34  1  0.044168  0.645429  0.406676  0  .  1
   O  O35  1  0.536833  0.070691  0.073348  0  .  1
   O  O36  1  0.929309  0.463167  0.926652  0  .  1
   O  O37  1  0.645429  0.406676  0.044168  0  .  1
   O  O38  1  0.073348  0.536833  0.070691  0  .  1
   O  O39  1  0.463167  0.926652  0.929309  0  .  1
   O  O40  1  0.266832  0.701164  0.240128  0  .  1
   O  O41  1  0.733168  0.759872  0.298836  0  .  1
   O  O42  1  0.926652  0.929309  0.463167  0  .  1
   O  O43  1  0.000000  0.000000  0.000000  0  .  1
   O  O44  1  0.955832  0.593324  0.354571  0  .  1
   O  O45  1  0.701164  0.240128  0.266832  0  .  1
   O  O46  1  0.669875  0.669875  0.669875  0  .  1
   O  O47  1  0.406676  0.044168  0.645429  0  .  1
   O  O48  1  0.263803  0.263803  0.263803  0  .  1
   O  O49  1  0.345385  0.346059  0.871150  0  .  1
   O  O50  1  0.070691  0.073348  0.536833  0  .  1
   O  O51  1  0.653941  0.654615  0.128850  0  .  1
   O  O52  1  0.560808  0.560808  0.560808  0  .  1
   O  O53  1  0.871150  0.345385  0.346059  0  .  1
   O  O54  1  0.346059  0.871150  0.345385  0  .  1
   O  O55  1  0.298836  0.733168  0.759872  0  .  1
   O  O56  1  0.736197  0.736197  0.736197  0  .  1
   O  O57  1  0.439192  0.439192  0.439192  0  .  1
 
