#\#CIF1.1
##########################################################################
#               Crystallographic Information Format file 
#               Produced by PyCifRW module
# 
#  This is a CIF file.  CIF has been adopted by the International
#  Union of Crystallography as the standard for data archiving and 
#  transmission.
#
#  For information on this file format, follow the CIF links at
#  http://www.iucr.org
##########################################################################

data_Ca2Co12P7
_symmetry_space_group_name_H-M          'P 1'
_cell_length_a                          9.03137942
_cell_length_b                          9.0313794202
_cell_length_c                          3.56186069
_cell_angle_alpha                       90.0
_cell_angle_beta                        90.0
_cell_angle_gamma                       119.999999989
_chemical_name_systematic               'Generated by pymatgen'
_symmetry_Int_Tables_number             1
_chemical_formula_structural            Ca2Co12P7
_chemical_formula_sum                   'Ca2 Co12 P7'
_cell_volume                            251.602954818
_cell_formula_units_Z                   1
loop_
  _symmetry_equiv_pos_site_id
  _symmetry_equiv_pos_as_xyz
   1  'x, y, z'
 
loop_
  _atom_site_type_symbol
  _atom_site_label
  _atom_site_symmetry_multiplicity
  _atom_site_fract_x
  _atom_site_fract_y
  _atom_site_fract_z
  _atom_site_attached_hydrogens
  _atom_site_B_iso_or_equiv
  _atom_site_occupancy
   P  P1  1  0.000000  0.000000  0.000000  0  .  1
   P  P2  1  0.404579  0.292022  0.000000  0  .  1
   P  P3  1  0.598710  0.708401  0.500000  0  .  1
   P  P4  1  0.291599  0.890309  0.500000  0  .  1
   P  P5  1  0.109691  0.401290  0.500000  0  .  1
   P  P6  1  0.707978  0.112558  0.000000  0  .  1
   P  P7  1  0.887442  0.595421  0.000000  0  .  1
   Ca  Ca8  1  0.666667  0.333333  0.500000  0  .  1
   Ca  Ca9  1  0.333333  0.666667  0.000000  0  .  1
   Co  Co10  1  0.382501  0.434417  0.500000  0  .  1
   Co  Co11  1  0.051916  0.617499  0.500000  0  .  1
   Co  Co12  1  0.234900  0.103095  0.500000  0  .  1
   Co  Co13  1  0.868195  0.765100  0.500000  0  .  1
   Co  Co14  1  0.896905  0.131805  0.500000  0  .  1
   Co  Co15  1  0.728194  0.880550  0.000000  0  .  1
   Co  Co16  1  0.119450  0.847644  0.000000  0  .  1
   Co  Co17  1  0.152356  0.271806  0.000000  0  .  1
   Co  Co18  1  0.941832  0.376369  0.000000  0  .  1
   Co  Co19  1  0.623631  0.565463  0.000000  0  .  1
   Co  Co20  1  0.434537  0.058168  0.000000  0  .  1
   Co  Co21  1  0.565583  0.948084  0.500000  0  .  1
 
