#\#CIF1.1
##########################################################################
#               Crystallographic Information Format file 
#               Produced by PyCifRW module
# 
#  This is a CIF file.  CIF has been adopted by the International
#  Union of Crystallography as the standard for data archiving and 
#  transmission.
#
#  For information on this file format, follow the CIF links at
#  http://www.iucr.org
##########################################################################

data_Ca2CuO3
_symmetry_space_group_name_H-M          'P 1'
_cell_length_a                          3.31249826757
_cell_length_b                          3.3890515899
_cell_length_c                          9.35247147824
_cell_angle_alpha                       100.488874509
_cell_angle_beta                        100.196916785
_cell_angle_gamma                       89.9984010663
_chemical_name_systematic               'Generated by pymatgen'
_symmetry_Int_Tables_number             1
_chemical_formula_structural            Ca2CuO3
_chemical_formula_sum                   'Ca2 Cu1 O3'
_cell_volume                            101.551671235
_cell_formula_units_Z                   1
loop_
  _symmetry_equiv_pos_site_id
  _symmetry_equiv_pos_as_xyz
   1  'x, y, z'
 
loop_
  _atom_site_type_symbol
  _atom_site_label
  _atom_site_symmetry_multiplicity
  _atom_site_fract_x
  _atom_site_fract_y
  _atom_site_fract_z
  _atom_site_attached_hydrogens
  _atom_site_B_iso_or_equiv
  _atom_site_occupancy
   Ca  Ca1  1  0.182250  0.681754  0.364413  0  .  1
   O  O2  1  1.000012  0.000323  1.000015  0  .  1
   O  O3  1  0.310952  0.811110  0.622068  0  .  1
   O  O4  1  0.689034  0.188531  0.377916  0  .  1
   Ca  Ca5  1  0.817733  0.317872  0.635562  0  .  1
   Cu  Cu6  1  1.000018  0.500409  1.000026  0  .  1
 
