#\#CIF1.1
##########################################################################
#               Crystallographic Information Format file 
#               Produced by PyCifRW module
# 
#  This is a CIF file.  CIF has been adopted by the International
#  Union of Crystallography as the standard for data archiving and 
#  transmission.
#
#  For information on this file format, follow the CIF links at
#  http://www.iucr.org
##########################################################################

data_Ca2CoO3
_symmetry_space_group_name_H-M          'P 1'
_cell_length_a                          3.28441093158
_cell_length_b                          3.28441093543
_cell_length_c                          10.8816218952
_cell_angle_alpha                       84.6498639823
_cell_angle_beta                        84.6498639383
_cell_angle_gamma                       89.8282186581
_chemical_name_systematic               'Generated by pymatgen'
_symmetry_Int_Tables_number             1
_chemical_formula_structural            Ca2CoO3
_chemical_formula_sum                   'Ca2 Co1 O3'
_cell_volume                            116.361458646
_cell_formula_units_Z                   1
loop_
  _symmetry_equiv_pos_site_id
  _symmetry_equiv_pos_as_xyz
   1  'x, y, z'
 
loop_
  _atom_site_type_symbol
  _atom_site_label
  _atom_site_symmetry_multiplicity
  _atom_site_fract_x
  _atom_site_fract_y
  _atom_site_fract_z
  _atom_site_attached_hydrogens
  _atom_site_B_iso_or_equiv
  _atom_site_occupancy
   O  O1  1  0.802684  0.802683  0.296276  0  .  1
   O  O2  1  0.675211  0.675211  0.695392  0  .  1
   O  O3  1  0.237948  0.237948  0.495815  0  .  1
   Ca  Ca4  1  0.304554  0.304555  0.290967  0  .  1
   Ca  Ca5  1  0.173497  0.173496  0.700697  0  .  1
   Co  Co6  1  0.740108  0.740106  0.495853  0  .  1
 
