#\#CIF1.1
##########################################################################
#               Crystallographic Information Format file 
#               Produced by PyCifRW module
# 
#  This is a CIF file.  CIF has been adopted by the International
#  Union of Crystallography as the standard for data archiving and 
#  transmission.
#
#  For information on this file format, follow the CIF links at
#  http://www.iucr.org
##########################################################################

data_Ca2Fe2O5
_symmetry_space_group_name_H-M          'P 1'
_cell_length_a                          6.53057453184
_cell_length_b                          6.50714120416
_cell_length_c                          6.03122180553
_cell_angle_alpha                       103.216356952
_cell_angle_beta                        96.8683908369
_cell_angle_gamma                       109.212679792
_chemical_name_systematic               'Generated by pymatgen'
_symmetry_Int_Tables_number             1
_chemical_formula_structural            Ca2Fe2O5
_chemical_formula_sum                   'Ca4 Fe4 O10'
_cell_volume                            230.261754618
_cell_formula_units_Z                   2
loop_
  _symmetry_equiv_pos_site_id
  _symmetry_equiv_pos_as_xyz
   1  'x, y, z'
 
loop_
  _atom_site_type_symbol
  _atom_site_label
  _atom_site_symmetry_multiplicity
  _atom_site_fract_x
  _atom_site_fract_y
  _atom_site_fract_z
  _atom_site_attached_hydrogens
  _atom_site_B_iso_or_equiv
  _atom_site_occupancy
   Ca  Ca1  1  0.017537  0.109207  0.284023  0  .  1
   Ca  Ca2  1  0.382406  0.511665  0.758299  0  .  1
   Ca  Ca3  1  0.617594  0.488335  0.241701  0  .  1
   Ca  Ca4  1  0.982463  0.890793  0.715977  0  .  1
   Fe  Fe5  1  0.345356  0.797652  0.338008  0  .  1
   Fe  Fe6  1  0.500000  0.000000  0.000000  0  .  1
   Fe  Fe7  1  0.654644  0.202348  0.661992  0  .  1
   Fe  Fe8  1  0.000000  0.500000  0.000000  0  .  1
   O  O9  1  0.978088  0.247905  0.656887  0  .  1
   O  O10  1  0.248856  0.467952  0.218208  0  .  1
   O  O11  1  0.607221  0.811711  0.155463  0  .  1
   O  O12  1  0.449827  0.144940  0.358800  0  .  1
   O  O13  1  0.201907  0.765575  0.942063  0  .  1
   O  O14  1  0.798093  0.234425  0.057937  0  .  1
   O  O15  1  0.550173  0.855060  0.641200  0  .  1
   O  O16  1  0.392779  0.188289  0.844537  0  .  1
   O  O17  1  0.751144  0.532048  0.781792  0  .  1
   O  O18  1  0.021912  0.752095  0.343113  0  .  1
 
