#\#CIF1.1
##########################################################################
#               Crystallographic Information Format file 
#               Produced by PyCifRW module
# 
#  This is a CIF file.  CIF has been adopted by the International
#  Union of Crystallography as the standard for data archiving and 
#  transmission.
#
#  For information on this file format, follow the CIF links at
#  http://www.iucr.org
##########################################################################

data_Ca2Fe9O13
_symmetry_space_group_name_H-M          'P 1'
_cell_length_a                          3.06092626365
_cell_length_b                          5.38586506529
_cell_length_c                          17.0335995996
_cell_angle_alpha                       98.4280358311
_cell_angle_beta                        89.9896624992
_cell_angle_gamma                       106.51370885
_chemical_name_systematic               'Generated by pymatgen'
_symmetry_Int_Tables_number             1
_chemical_formula_structural            Ca2Fe9O13
_chemical_formula_sum                   'Ca2 Fe9 O13'
_cell_volume                            266.066121359
_cell_formula_units_Z                   1
loop_
  _symmetry_equiv_pos_site_id
  _symmetry_equiv_pos_as_xyz
   1  'x, y, z'
 
loop_
  _atom_site_type_symbol
  _atom_site_label
  _atom_site_symmetry_multiplicity
  _atom_site_fract_x
  _atom_site_fract_y
  _atom_site_fract_z
  _atom_site_attached_hydrogens
  _atom_site_B_iso_or_equiv
  _atom_site_occupancy
   Ca  Ca1  1  0.213472  0.426882  0.228225  0  .  1
   Ca  Ca2  1  0.786528  0.573118  0.771775  0  .  1
   Fe  Fe3  1  0.500000  0.000000  0.500000  0  .  1
   Fe  Fe4  1  0.645274  0.290513  0.040420  0  .  1
   Fe  Fe5  1  0.354726  0.709487  0.959580  0  .  1
   Fe  Fe6  1  0.751856  0.503619  0.417999  0  .  1
   Fe  Fe7  1  0.248144  0.496381  0.582001  0  .  1
   Fe  Fe8  1  0.934624  0.869241  0.122067  0  .  1
   Fe  Fe9  1  0.065376  0.130759  0.877933  0  .  1
   Fe  Fe10  1  0.992761  0.985425  0.331970  0  .  1
   Fe  Fe11  1  0.007239  0.014575  0.668030  0  .  1
   O  O12  1  0.000000  0.000000  0.000000  0  .  1
   O  O13  1  0.880332  0.760720  0.227791  0  .  1
   O  O14  1  0.119668  0.239280  0.772209  0  .  1
   O  O15  1  0.305365  0.610613  0.076829  0  .  1
   O  O16  1  0.694635  0.389387  0.923171  0  .  1
   O  O17  1  0.570445  0.140514  0.144899  0  .  1
   O  O18  1  0.429555  0.859486  0.855101  0  .  1
   O  O19  1  0.625251  0.250415  0.316952  0  .  1
   O  O20  1  0.374749  0.749585  0.683048  0  .  1
   O  O21  1  0.392710  0.785425  0.389532  0  .  1
   O  O22  1  0.607290  0.214575  0.610468  0  .  1
   O  O23  1  0.119786  0.239456  0.468622  0  .  1
   O  O24  1  0.880214  0.760544  0.531378  0  .  1
 
