#\#CIF1.1
##########################################################################
#               Crystallographic Information Format file 
#               Produced by PyCifRW module
# 
#  This is a CIF file.  CIF has been adopted by the International
#  Union of Crystallography as the standard for data archiving and 
#  transmission.
#
#  For information on this file format, follow the CIF links at
#  http://www.iucr.org
##########################################################################

data_Ca2Mn2O5
_symmetry_space_group_name_H-M          'P 1'
_cell_length_a                          3.8371123
_cell_length_b                          5.50261245
_cell_length_c                          10.39494665
_cell_angle_alpha                       90.0
_cell_angle_beta                        90.0
_cell_angle_gamma                       90.0
_chemical_name_systematic               'Generated by pymatgen'
_symmetry_Int_Tables_number             1
_chemical_formula_structural            Ca2Mn2O5
_chemical_formula_sum                   'Ca4 Mn4 O10'
_cell_volume                            219.480378757
_cell_formula_units_Z                   2
loop_
  _symmetry_equiv_pos_site_id
  _symmetry_equiv_pos_as_xyz
   1  'x, y, z'
 
loop_
  _atom_site_type_symbol
  _atom_site_label
  _atom_site_symmetry_multiplicity
  _atom_site_fract_x
  _atom_site_fract_y
  _atom_site_fract_z
  _atom_site_attached_hydrogens
  _atom_site_B_iso_or_equiv
  _atom_site_occupancy
   O  O1  1  0.000000  0.500001  0.500000  0  .  1
   O  O2  1  0.000000  0.082874  0.291617  0  .  1
   O  O3  1  0.000000  0.582873  0.208383  0  .  1
   O  O4  1  0.000000  0.417126  0.791617  0  .  1
   O  O5  1  0.500001  0.289236  0.098094  0  .  1
   O  O6  1  0.500001  0.710764  0.901906  0  .  1
   O  O7  1  0.000000  0.917126  0.708382  0  .  1
   O  O8  1  0.500001  0.210765  0.598094  0  .  1
   O  O9  1  0.000000  0.000000  0.000000  0  .  1
   O  O10  1  0.500001  0.789235  0.401906  0  .  1
   Ca  Ca11  1  0.500001  0.194898  0.870812  0  .  1
   Ca  Ca12  1  0.500001  0.805101  0.129188  0  .  1
   Ca  Ca13  1  0.500001  0.694899  0.629188  0  .  1
   Ca  Ca14  1  0.500001  0.305101  0.370812  0  .  1
   Mn  Mn15  1  0.000000  0.221149  0.620759  0  .  1
   Mn  Mn16  1  0.000000  0.778851  0.379242  0  .  1
   Mn  Mn17  1  0.000000  0.278850  0.120758  0  .  1
   Mn  Mn18  1  0.000000  0.721150  0.879242  0  .  1
 
