#\#CIF1.1
##########################################################################
#               Crystallographic Information Format file 
#               Produced by PyCifRW module
# 
#  This is a CIF file.  CIF has been adopted by the International
#  Union of Crystallography as the standard for data archiving and 
#  transmission.
#
#  For information on this file format, follow the CIF links at
#  http://www.iucr.org
##########################################################################

data_Ca3MnO4
_symmetry_space_group_name_H-M          'P 1'
_cell_length_a                          3.37117577348
_cell_length_b                          5.81650291608
_cell_length_c                          5.81650291608
_cell_angle_alpha                       70.4270725158
_cell_angle_beta                        90.0
_cell_angle_gamma                       90.0
_chemical_name_systematic               'Generated by pymatgen'
_symmetry_Int_Tables_number             1
_chemical_formula_structural            Ca3MnO4
_chemical_formula_sum                   'Ca3 Mn1 O4'
_cell_volume                            107.462194049
_cell_formula_units_Z                   1
loop_
  _symmetry_equiv_pos_site_id
  _symmetry_equiv_pos_as_xyz
   1  'x, y, z'
 
loop_
  _atom_site_type_symbol
  _atom_site_label
  _atom_site_symmetry_multiplicity
  _atom_site_fract_x
  _atom_site_fract_y
  _atom_site_fract_z
  _atom_site_attached_hydrogens
  _atom_site_B_iso_or_equiv
  _atom_site_occupancy
   Ca  Ca1  1  0.000000  0.500000  0.500000  0  .  1
   Ca  Ca2  1  0.500000  0.000000  0.500000  0  .  1
   Ca  Ca3  1  0.500000  0.500000  0.000000  0  .  1
   Mn  Mn4  1  0.000000  0.000000  0.000000  0  .  1
   O  O5  1  0.000000  0.752887  0.752887  0  .  1
   O  O6  1  0.500000  0.243051  0.756949  0  .  1
   O  O7  1  0.500000  0.756949  0.243051  0  .  1
   O  O8  1  0.000000  0.247113  0.247113  0  .  1
 
