#\#CIF1.1
##########################################################################
#               Crystallographic Information Format file 
#               Produced by PyCifRW module
# 
#  This is a CIF file.  CIF has been adopted by the International
#  Union of Crystallography as the standard for data archiving and 
#  transmission.
#
#  For information on this file format, follow the CIF links at
#  http://www.iucr.org
##########################################################################

data_Ca4Mn4O11
_symmetry_space_group_name_H-M          'P 1'
_cell_length_a                          10.8653874438
_cell_length_b                          5.47929098
_cell_length_c                          7.54896285901
_cell_angle_alpha                       90.0
_cell_angle_beta                        90.1396576353
_cell_angle_gamma                       90.0
_chemical_name_systematic               'Generated by pymatgen'
_symmetry_Int_Tables_number             1
_chemical_formula_structural            Ca4Mn4O11
_chemical_formula_sum                   'Ca8 Mn8 O22'
_cell_volume                            449.423295697
_cell_formula_units_Z                   2
loop_
  _symmetry_equiv_pos_site_id
  _symmetry_equiv_pos_as_xyz
   1  'x, y, z'
 
loop_
  _atom_site_type_symbol
  _atom_site_label
  _atom_site_symmetry_multiplicity
  _atom_site_fract_x
  _atom_site_fract_y
  _atom_site_fract_z
  _atom_site_attached_hydrogens
  _atom_site_B_iso_or_equiv
  _atom_site_occupancy
   Ca  Ca1  1  0.989812  0.022460  0.760844  0  .  1
   Ca  Ca2  1  0.258080  0.552821  0.750724  0  .  1
   Ca  Ca3  1  0.255395  0.490394  0.234401  0  .  1
   Ca  Ca4  1  0.494605  0.990394  0.265599  0  .  1
   Ca  Ca5  1  0.491920  0.052821  0.749276  0  .  1
   Ca  Ca6  1  0.760188  0.522460  0.739156  0  .  1
   Ca  Ca7  1  0.753599  0.441745  0.267835  0  .  1
   Ca  Ca8  1  0.996401  0.941745  0.232165  0  .  1
   Mn  Mn9  1  0.002946  0.493189  0.993974  0  .  1
   Mn  Mn10  1  0.998313  0.513140  0.501323  0  .  1
   Mn  Mn11  1  0.255570  0.997859  0.500822  0  .  1
   Mn  Mn12  1  0.246131  0.009876  0.995933  0  .  1
   Mn  Mn13  1  0.503869  0.509876  0.504067  0  .  1
   Mn  Mn14  1  0.494430  0.497859  0.999178  0  .  1
   Mn  Mn15  1  0.747054  0.993189  0.506026  0  .  1
   Mn  Mn16  1  0.751687  0.013140  0.998677  0  .  1
   O  O17  1  0.048643  0.464603  0.741996  0  .  1
   O  O18  1  0.139839  0.721212  0.035277  0  .  1
   O  O19  1  0.137103  0.731708  0.448919  0  .  1
   O  O20  1  0.106109  0.213733  0.047674  0  .  1
   O  O21  1  0.203705  0.988267  0.744235  0  .  1
   O  O22  1  0.281359  0.044511  0.251761  0  .  1
   O  O23  1  0.395924  0.796610  0.961582  0  .  1
   O  O24  1  0.400954  0.784152  0.542990  0  .  1
   O  O25  1  0.349046  0.284152  0.957010  0  .  1
   O  O26  1  0.354076  0.296610  0.538418  0  .  1
   O  O27  1  0.468641  0.544511  0.248239  0  .  1
   O  O28  1  0.546295  0.488267  0.755765  0  .  1
   O  O29  1  0.643891  0.713733  0.452326  0  .  1
   O  O30  1  0.610161  0.221212  0.464723  0  .  1
   O  O31  1  0.612896  0.231708  0.051081  0  .  1
   O  O32  1  0.701357  0.964603  0.758004  0  .  1
   O  O33  1  0.783897  0.992731  0.249336  0  .  1
   O  O34  1  0.883625  0.763882  0.961805  0  .  1
   O  O35  1  0.882056  0.780505  0.548161  0  .  1
   O  O36  1  0.867944  0.280505  0.951839  0  .  1
   O  O37  1  0.866375  0.263882  0.538195  0  .  1
   O  O38  1  0.966103  0.492731  0.250664  0  .  1
 
