#\#CIF1.1
##########################################################################
#               Crystallographic Information Format file 
#               Produced by PyCifRW module
# 
#  This is a CIF file.  CIF has been adopted by the International
#  Union of Crystallography as the standard for data archiving and 
#  transmission.
#
#  For information on this file format, follow the CIF links at
#  http://www.iucr.org
##########################################################################

data_Ca4Ti3O10
_symmetry_space_group_name_H-M          'P 1'
_cell_length_a                          5.44465149
_cell_length_b                          5.52786149
_cell_length_c                          27.17890803
_cell_angle_alpha                       90.0
_cell_angle_beta                        90.0
_cell_angle_gamma                       90.0
_chemical_name_systematic               'Generated by pymatgen'
_symmetry_Int_Tables_number             1
_chemical_formula_structural            Ca4Ti3O10
_chemical_formula_sum                   'Ca16 Ti12 O40'
_cell_volume                            818.011185995
_cell_formula_units_Z                   4
loop_
  _symmetry_equiv_pos_site_id
  _symmetry_equiv_pos_as_xyz
   1  'x, y, z'
 
loop_
  _atom_site_type_symbol
  _atom_site_label
  _atom_site_symmetry_multiplicity
  _atom_site_fract_x
  _atom_site_fract_y
  _atom_site_fract_z
  _atom_site_attached_hydrogens
  _atom_site_B_iso_or_equiv
  _atom_site_occupancy
   O  O1  1  0.709715  0.209894  0.511104  0  .  1
   O  O2  1  0.209715  0.290106  0.488896  0  .  1
   O  O3  1  0.290285  0.709894  0.988896  0  .  1
   O  O4  1  0.790285  0.790106  0.011104  0  .  1
   O  O5  1  0.290285  0.790106  0.488896  0  .  1
   O  O6  1  0.790285  0.709894  0.511104  0  .  1
   O  O7  1  0.709715  0.290106  0.011104  0  .  1
   O  O8  1  0.209715  0.209894  0.988896  0  .  1
   O  O9  1  0.791027  0.713508  0.347840  0  .  1
   O  O10  1  0.291027  0.786492  0.652160  0  .  1
   O  O11  1  0.208973  0.213508  0.152160  0  .  1
   O  O12  1  0.708973  0.286492  0.847840  0  .  1
   O  O13  1  0.208973  0.286492  0.652160  0  .  1
   O  O14  1  0.708973  0.213508  0.347840  0  .  1
   O  O15  1  0.791027  0.786492  0.847840  0  .  1
   O  O16  1  0.291027  0.713508  0.152160  0  .  1
   O  O17  1  0.931323  0.976853  0.712494  0  .  1
   O  O18  1  0.209903  0.295624  0.369406  0  .  1
   O  O19  1  0.790097  0.795624  0.130594  0  .  1
   O  O20  1  0.290097  0.704376  0.869406  0  .  1
   O  O21  1  0.790097  0.704376  0.630594  0  .  1
   O  O22  1  0.290097  0.795624  0.369406  0  .  1
   O  O23  1  0.209903  0.204376  0.869406  0  .  1
   O  O24  1  0.709903  0.295624  0.130594  0  .  1
   O  O25  1  0.068677  0.023147  0.287506  0  .  1
   O  O26  1  0.568677  0.476853  0.712494  0  .  1
   O  O27  1  0.931323  0.523147  0.212494  0  .  1
   O  O28  1  0.431323  0.976853  0.787506  0  .  1
   O  O29  1  0.424487  0.982014  0.070568  0  .  1
   O  O30  1  0.924487  0.517986  0.929432  0  .  1
   O  O31  1  0.575513  0.482014  0.429432  0  .  1
   O  O32  1  0.075513  0.017986  0.570568  0  .  1
   O  O33  1  0.575513  0.017986  0.929432  0  .  1
   O  O34  1  0.075513  0.482014  0.070568  0  .  1
   O  O35  1  0.424487  0.517986  0.570568  0  .  1
   O  O36  1  0.924487  0.982014  0.429432  0  .  1
   O  O37  1  0.568677  0.023147  0.212494  0  .  1
   O  O38  1  0.068677  0.476853  0.787506  0  .  1
   O  O39  1  0.431323  0.523147  0.287506  0  .  1
   O  O40  1  0.709903  0.204376  0.630594  0  .  1
   Ca  Ca41  1  0.505538  0.540231  0.069395  0  .  1
   Ca  Ca42  1  0.005538  0.959769  0.930605  0  .  1
   Ca  Ca43  1  0.494462  0.040231  0.430605  0  .  1
   Ca  Ca44  1  0.994462  0.459769  0.569395  0  .  1
   Ca  Ca45  1  0.494462  0.459769  0.930605  0  .  1
   Ca  Ca46  1  0.994462  0.040231  0.069395  0  .  1
   Ca  Ca47  1  0.505538  0.959769  0.569395  0  .  1
   Ca  Ca48  1  0.005538  0.540231  0.430605  0  .  1
   Ca  Ca49  1  0.992920  0.954074  0.205184  0  .  1
   Ca  Ca50  1  0.492920  0.545926  0.794816  0  .  1
   Ca  Ca51  1  0.007080  0.454074  0.294816  0  .  1
   Ca  Ca52  1  0.507080  0.045926  0.705184  0  .  1
   Ca  Ca53  1  0.492920  0.954074  0.294816  0  .  1
   Ca  Ca54  1  0.992920  0.545926  0.705184  0  .  1
   Ca  Ca55  1  0.507080  0.454074  0.205184  0  .  1
   Ca  Ca56  1  0.007080  0.045926  0.794816  0  .  1
   Ti  Ti57  1  0.000000  0.500000  0.000000  0  .  1
   Ti  Ti58  1  0.500000  0.000000  0.000000  0  .  1
   Ti  Ti59  1  0.000000  0.000000  0.500000  0  .  1
   Ti  Ti60  1  0.500000  0.500000  0.500000  0  .  1
   Ti  Ti61  1  0.501715  0.986715  0.142568  0  .  1
   Ti  Ti62  1  0.001715  0.513285  0.857432  0  .  1
   Ti  Ti63  1  0.498285  0.486715  0.357432  0  .  1
   Ti  Ti64  1  0.998285  0.013285  0.642568  0  .  1
   Ti  Ti65  1  0.498285  0.013285  0.857432  0  .  1
   Ti  Ti66  1  0.998285  0.486715  0.142568  0  .  1
   Ti  Ti67  1  0.501715  0.513285  0.642568  0  .  1
   Ti  Ti68  1  0.001715  0.986715  0.357432  0  .  1
 
