#\#CIF1.1
##########################################################################
#               Crystallographic Information Format file 
#               Produced by PyCifRW module
# 
#  This is a CIF file.  CIF has been adopted by the International
#  Union of Crystallography as the standard for data archiving and 
#  transmission.
#
#  For information on this file format, follow the CIF links at
#  http://www.iucr.org
##########################################################################

data_Ca5MnO6
_symmetry_space_group_name_H-M          'P 1'
_cell_length_a                          3.38158876936
_cell_length_b                          5.8510225007
_cell_length_c                          8.92790088179
_cell_angle_alpha                       70.7619830389
_cell_angle_beta                        100.916790302
_cell_angle_gamma                       90.0
_chemical_name_systematic               'Generated by pymatgen'
_symmetry_Int_Tables_number             1
_chemical_formula_structural            Ca5MnO6
_chemical_formula_sum                   'Ca5 Mn1 O6'
_cell_volume                            163.3914208
_cell_formula_units_Z                   1
loop_
  _symmetry_equiv_pos_site_id
  _symmetry_equiv_pos_as_xyz
   1  'x, y, z'
 
loop_
  _atom_site_type_symbol
  _atom_site_label
  _atom_site_symmetry_multiplicity
  _atom_site_fract_x
  _atom_site_fract_y
  _atom_site_fract_z
  _atom_site_attached_hydrogens
  _atom_site_B_iso_or_equiv
  _atom_site_occupancy
   Ca  Ca1  1  0.834707  0.496534  0.669414  0  .  1
   Ca  Ca2  1  0.335366  0.999687  0.670730  0  .  1
   Ca  Ca3  1  0.165293  0.503466  0.330586  0  .  1
   Ca  Ca4  1  0.500000  0.500000  0.000000  0  .  1
   Ca  Ca5  1  0.664634  0.000313  0.329270  0  .  1
   Mn  Mn6  1  0.000000  0.000000  0.000000  0  .  1
   O  O7  1  0.917938  0.753489  0.835875  0  .  1
   O  O8  1  0.420319  0.240206  0.840637  0  .  1
   O  O9  1  0.250890  0.746088  0.501780  0  .  1
   O  O10  1  0.579681  0.759794  0.159363  0  .  1
   O  O11  1  0.749110  0.253912  0.498220  0  .  1
   O  O12  1  0.082062  0.246511  0.164125  0  .  1
 
