#\#CIF1.1
##########################################################################
#               Crystallographic Information Format file 
#               Produced by PyCifRW module
# 
#  This is a CIF file.  CIF has been adopted by the International
#  Union of Crystallography as the standard for data archiving and 
#  transmission.
#
#  For information on this file format, follow the CIF links at
#  http://www.iucr.org
##########################################################################

data_Ca7Cu17O24
_symmetry_space_group_name_H-M          'P 1'
_cell_length_a                          9.89690094
_cell_length_b                          16.4370038
_cell_length_c                          3.64064821
_cell_angle_alpha                       90.0
_cell_angle_beta                        90.0
_cell_angle_gamma                       90.0
_chemical_name_systematic               'Generated by pymatgen'
_symmetry_Int_Tables_number             1
_chemical_formula_structural            Ca7Cu17O24
_chemical_formula_sum                   'Ca7 Cu17 O24'
_cell_volume                            592.243897847
_cell_formula_units_Z                   1
loop_
  _symmetry_equiv_pos_site_id
  _symmetry_equiv_pos_as_xyz
   1  'x, y, z'
 
loop_
  _atom_site_type_symbol
  _atom_site_label
  _atom_site_symmetry_multiplicity
  _atom_site_fract_x
  _atom_site_fract_y
  _atom_site_fract_z
  _atom_site_attached_hydrogens
  _atom_site_B_iso_or_equiv
  _atom_site_occupancy
   Ca  Ca1  1  0.250000  0.062257  0.350960  0  .  1
   Ca  Ca2  1  0.250000  0.311238  0.359038  0  .  1
   Ca  Ca3  1  0.250000  0.563762  0.359038  0  .  1
   Ca  Ca4  1  0.250000  0.812743  0.350960  0  .  1
   Ca  Ca5  1  0.750000  0.184478  0.632447  0  .  1
   Ca  Ca6  1  0.750000  0.437500  0.645813  0  .  1
   Ca  Ca7  1  0.750000  0.690522  0.632447  0  .  1
   Cu  Cu8  1  0.082315  0.689355  0.857665  0  .  1
   Cu  Cu9  1  0.082416  0.937500  0.842434  0  .  1
   Cu  Cu10  1  0.084875  0.437500  0.857075  0  .  1
   Cu  Cu11  1  0.082315  0.185645  0.857665  0  .  1
   Cu  Cu12  1  0.417685  0.185645  0.857665  0  .  1
   Cu  Cu13  1  0.415125  0.437500  0.857075  0  .  1
   Cu  Cu14  1  0.417685  0.689355  0.857665  0  .  1
   Cu  Cu15  1  0.417584  0.937500  0.842434  0  .  1
   Cu  Cu16  1  0.589784  0.058320  0.145705  0  .  1
   Cu  Cu17  1  0.585801  0.311338  0.146594  0  .  1
   Cu  Cu18  1  0.585801  0.563662  0.146594  0  .  1
   Cu  Cu19  1  0.589784  0.816680  0.145705  0  .  1
   Cu  Cu20  1  0.750000  0.937500  0.538661  0  .  1
   Cu  Cu21  1  0.910216  0.058320  0.145705  0  .  1
   Cu  Cu22  1  0.914199  0.311338  0.146594  0  .  1
   Cu  Cu23  1  0.914199  0.563662  0.146594  0  .  1
   Cu  Cu24  1  0.910216  0.816680  0.145705  0  .  1
   O  O25  1  0.080943  0.563352  0.888341  0  .  1
   O  O26  1  0.078727  0.815536  0.886227  0  .  1
   O  O27  1  0.080943  0.311648  0.888341  0  .  1
   O  O28  1  0.078727  0.059464  0.886227  0  .  1
   O  O29  1  0.250000  0.186120  0.611372  0  .  1
   O  O30  1  0.250000  0.437500  0.599917  0  .  1
   O  O31  1  0.250000  0.937500  0.594489  0  .  1
   O  O32  1  0.250000  0.688880  0.611372  0  .  1
   O  O33  1  0.419057  0.311648  0.888341  0  .  1
   O  O34  1  0.421273  0.059464  0.886227  0  .  1
   O  O35  1  0.419057  0.563352  0.888341  0  .  1
   O  O36  1  0.421273  0.815536  0.886227  0  .  1
   O  O37  1  0.586968  0.182958  0.114036  0  .  1
   O  O38  1  0.582164  0.437500  0.116074  0  .  1
   O  O39  1  0.586968  0.692042  0.114036  0  .  1
   O  O40  1  0.585075  0.937500  0.085917  0  .  1
   O  O41  1  0.750000  0.051497  0.436079  0  .  1
   O  O42  1  0.750000  0.312008  0.406669  0  .  1
   O  O43  1  0.750000  0.562992  0.406669  0  .  1
   O  O44  1  0.750000  0.823503  0.436079  0  .  1
   O  O45  1  0.913032  0.182958  0.114036  0  .  1
   O  O46  1  0.917836  0.437500  0.116074  0  .  1
   O  O47  1  0.913032  0.692042  0.114036  0  .  1
   O  O48  1  0.914925  0.937500  0.085917  0  .  1
 
