#\#CIF1.1
##########################################################################
#               Crystallographic Information Format file 
#               Produced by PyCifRW module
# 
#  This is a CIF file.  CIF has been adopted by the International
#  Union of Crystallography as the standard for data archiving and 
#  transmission.
#
#  For information on this file format, follow the CIF links at
#  http://www.iucr.org
##########################################################################

data_CaAl4
_symmetry_space_group_name_H-M          'P 1'
_cell_length_a                          4.35125621818
_cell_length_b                          4.35125621854
_cell_length_c                          6.40287392841
_cell_angle_alpha                       109.86403824
_cell_angle_beta                        109.864038197
_cell_angle_gamma                       89.9999999711
_chemical_name_systematic               'Generated by pymatgen'
_symmetry_Int_Tables_number             1
_chemical_formula_structural            CaAl4
_chemical_formula_sum                   'Ca1 Al4'
_cell_volume                            106.314339279
_cell_formula_units_Z                   1
loop_
  _symmetry_equiv_pos_site_id
  _symmetry_equiv_pos_as_xyz
   1  'x, y, z'
 
loop_
  _atom_site_type_symbol
  _atom_site_label
  _atom_site_symmetry_multiplicity
  _atom_site_fract_x
  _atom_site_fract_y
  _atom_site_fract_z
  _atom_site_attached_hydrogens
  _atom_site_B_iso_or_equiv
  _atom_site_occupancy
   Al  Al1  1  0.250000  0.750000  0.500000  0  .  1
   Al  Al2  1  0.386471  0.386471  0.772941  0  .  1
   Al  Al3  1  0.613529  0.613529  0.227059  0  .  1
   Al  Al4  1  0.750000  0.250000  0.500000  0  .  1
   Ca  Ca5  1  0.000000  0.000000  0.000000  0  .  1
 
