#\#CIF1.1
##########################################################################
#               Crystallographic Information Format file 
#               Produced by PyCifRW module
# 
#  This is a CIF file.  CIF has been adopted by the International
#  Union of Crystallography as the standard for data archiving and 
#  transmission.
#
#  For information on this file format, follow the CIF links at
#  http://www.iucr.org
##########################################################################

data_CaCrO3
_symmetry_space_group_name_H-M          'P 1'
_cell_length_a                          5.33205647
_cell_length_b                          5.4760635
_cell_length_c                          7.53805618
_cell_angle_alpha                       90.0
_cell_angle_beta                        90.0
_cell_angle_gamma                       90.0
_chemical_name_systematic               'Generated by pymatgen'
_symmetry_Int_Tables_number             1
_chemical_formula_structural            CaCrO3
_chemical_formula_sum                   'Ca4 Cr4 O12'
_cell_volume                            220.10128883
_cell_formula_units_Z                   4
loop_
  _symmetry_equiv_pos_site_id
  _symmetry_equiv_pos_as_xyz
   1  'x, y, z'
 
loop_
  _atom_site_type_symbol
  _atom_site_label
  _atom_site_symmetry_multiplicity
  _atom_site_fract_x
  _atom_site_fract_y
  _atom_site_fract_z
  _atom_site_attached_hydrogens
  _atom_site_B_iso_or_equiv
  _atom_site_occupancy
   O  O1  1  0.921598  0.522574  0.750000  0  .  1
   O  O2  1  0.421598  0.977428  0.249999  0  .  1
   O  O3  1  0.578402  0.022573  0.750000  0  .  1
   O  O4  1  0.078402  0.477427  0.249999  0  .  1
   O  O5  1  0.712042  0.297351  0.459563  0  .  1
   O  O6  1  0.212042  0.202650  0.540438  0  .  1
   O  O7  1  0.787958  0.797350  0.040438  0  .  1
   O  O8  1  0.287958  0.702649  0.959562  0  .  1
   O  O9  1  0.712042  0.297351  0.040438  0  .  1
   O  O10  1  0.212042  0.202650  0.959562  0  .  1
   O  O11  1  0.287958  0.702649  0.540438  0  .  1
   O  O12  1  0.787958  0.797350  0.459563  0  .  1
   Ca  Ca13  1  0.991879  0.045011  0.249999  0  .  1
   Ca  Ca14  1  0.491879  0.454989  0.750000  0  .  1
   Ca  Ca15  1  0.508121  0.545012  0.249999  0  .  1
   Ca  Ca16  1  0.008121  0.954990  0.750000  0  .  1
   Cr  Cr17  1  0.500000  0.000000  0.000000  0  .  1
   Cr  Cr18  1  0.000000  0.499999  0.000000  0  .  1
   Cr  Cr19  1  0.000000  0.499999  0.500000  0  .  1
   Cr  Cr20  1  0.500000  0.000000  0.500000  0  .  1
 
