#\#CIF1.1
##########################################################################
#               Crystallographic Information Format file 
#               Produced by PyCifRW module
# 
#  This is a CIF file.  CIF has been adopted by the International
#  Union of Crystallography as the standard for data archiving and 
#  transmission.
#
#  For information on this file format, follow the CIF links at
#  http://www.iucr.org
##########################################################################

data_CaCuO2
_symmetry_space_group_name_H-M          'P 1'
_cell_length_a                          3.20286329935
_cell_length_b                          5.46027114491
_cell_length_c                          11.13506554
_cell_angle_alpha                       90.0
_cell_angle_beta                        90.0
_cell_angle_gamma                       90.031189213
_chemical_name_systematic               'Generated by pymatgen'
_symmetry_Int_Tables_number             1
_chemical_formula_structural            CaCuO2
_chemical_formula_sum                   'Ca4 Cu4 O8'
_cell_volume                            194.735587721
_cell_formula_units_Z                   4
loop_
  _symmetry_equiv_pos_site_id
  _symmetry_equiv_pos_as_xyz
   1  'x, y, z'
 
loop_
  _atom_site_type_symbol
  _atom_site_label
  _atom_site_symmetry_multiplicity
  _atom_site_fract_x
  _atom_site_fract_y
  _atom_site_fract_z
  _atom_site_attached_hydrogens
  _atom_site_B_iso_or_equiv
  _atom_site_occupancy
   Ca  Ca1  1  0.505993  0.225555  0.112978  0  .  1
   Ca  Ca2  1  0.496738  0.725559  0.887567  0  .  1
   Ca  Ca3  1  0.503262  0.274441  0.387567  0  .  1
   Ca  Ca4  1  0.494007  0.774445  0.612978  0  .  1
   Cu  Cu5  1  0.008438  0.734985  0.128389  0  .  1
   Cu  Cu6  1  0.991562  0.265015  0.628389  0  .  1
   Cu  Cu7  1  0.993104  0.235048  0.872018  0  .  1
   Cu  Cu8  1  0.006896  0.764952  0.372018  0  .  1
   O  O9  1  1.000381  0.023297  0.495963  0  .  1
   O  O10  1  0.016915  0.006492  0.244169  0  .  1
   O  O11  1  0.997226  0.523257  0.504584  0  .  1
   O  O12  1  0.002774  0.476743  0.004584  0  .  1
   O  O13  1  -0.000381  0.976703  0.995963  0  .  1
   O  O14  1  0.983085  0.993508  0.744169  0  .  1
   O  O15  1  0.014161  0.493342  0.256331  0  .  1
   O  O16  1  0.985839  0.506658  0.756331  0  .  1
 
