#\#CIF1.1
##########################################################################
#               Crystallographic Information Format file 
#               Produced by PyCifRW module
# 
#  This is a CIF file.  CIF has been adopted by the International
#  Union of Crystallography as the standard for data archiving and 
#  transmission.
#
#  For information on this file format, follow the CIF links at
#  http://www.iucr.org
##########################################################################

data_CaFeO3
_symmetry_space_group_name_H-M          'P 1'
_cell_length_a                          5.3903044
_cell_length_b                          5.44102275
_cell_length_c                          7.64207322
_cell_angle_alpha                       90.0
_cell_angle_beta                        90.0
_cell_angle_gamma                       90.0
_chemical_name_systematic               'Generated by pymatgen'
_symmetry_Int_Tables_number             1
_chemical_formula_structural            CaFeO3
_chemical_formula_sum                   'Ca4 Fe4 O12'
_cell_volume                            224.132599156
_cell_formula_units_Z                   4
loop_
  _symmetry_equiv_pos_site_id
  _symmetry_equiv_pos_as_xyz
   1  'x, y, z'
 
loop_
  _atom_site_type_symbol
  _atom_site_label
  _atom_site_symmetry_multiplicity
  _atom_site_fract_x
  _atom_site_fract_y
  _atom_site_fract_z
  _atom_site_attached_hydrogens
  _atom_site_B_iso_or_equiv
  _atom_site_occupancy
   O  O1  1  0.926740  0.516863  0.750000  0  .  1
   O  O2  1  0.426740  0.983137  0.250000  0  .  1
   O  O3  1  0.573260  0.016863  0.750000  0  .  1
   O  O4  1  0.073260  0.483137  0.250000  0  .  1
   O  O5  1  0.710768  0.288609  0.461687  0  .  1
   O  O6  1  0.210768  0.211391  0.538313  0  .  1
   O  O7  1  0.789232  0.788609  0.038313  0  .  1
   O  O8  1  0.289232  0.711391  0.961687  0  .  1
   O  O9  1  0.710768  0.288609  0.038313  0  .  1
   O  O10  1  0.210768  0.211391  0.961687  0  .  1
   O  O11  1  0.789232  0.788609  0.461687  0  .  1
   O  O12  1  0.289232  0.711391  0.538313  0  .  1
   Ca  Ca13  1  0.992338  0.041245  0.250000  0  .  1
   Ca  Ca14  1  0.492338  0.458755  0.750000  0  .  1
   Ca  Ca15  1  0.507662  0.541245  0.250000  0  .  1
   Ca  Ca16  1  0.007662  0.958755  0.750000  0  .  1
   Fe  Fe17  1  0.000000  0.500000  0.000000  0  .  1
   Fe  Fe18  1  0.500000  0.000000  0.000000  0  .  1
   Fe  Fe19  1  0.500000  0.000000  0.500000  0  .  1
   Fe  Fe20  1  0.000000  0.500000  0.500000  0  .  1
 
