#\#CIF1.1
##########################################################################
#               Crystallographic Information Format file 
#               Produced by PyCifRW module
# 
#  This is a CIF file.  CIF has been adopted by the International
#  Union of Crystallography as the standard for data archiving and 
#  transmission.
#
#  For information on this file format, follow the CIF links at
#  http://www.iucr.org
##########################################################################

data_CaFe3O5
_symmetry_space_group_name_H-M          'P 1'
_cell_length_a                          3.05341439
_cell_length_b                          5.36785300573
_cell_length_c                          12.74636714
_cell_angle_alpha                       90.0
_cell_angle_beta                        90.0
_cell_angle_gamma                       106.523986908
_chemical_name_systematic               'Generated by pymatgen'
_symmetry_Int_Tables_number             1
_chemical_formula_structural            CaFe3O5
_chemical_formula_sum                   'Ca2 Fe6 O10'
_cell_volume                            200.288425316
_cell_formula_units_Z                   2
loop_
  _symmetry_equiv_pos_site_id
  _symmetry_equiv_pos_as_xyz
   1  'x, y, z'
 
loop_
  _atom_site_type_symbol
  _atom_site_label
  _atom_site_symmetry_multiplicity
  _atom_site_fract_x
  _atom_site_fract_y
  _atom_site_fract_z
  _atom_site_attached_hydrogens
  _atom_site_B_iso_or_equiv
  _atom_site_occupancy
   O  O1  1  0.900616  0.801230  0.637183  0  .  1
   O  O2  1  0.099385  0.198770  0.362817  0  .  1
   O  O3  1  0.099385  0.198770  0.137183  0  .  1
   O  O4  1  0.900616  0.801230  0.862817  0  .  1
   O  O5  1  0.651196  0.302389  0.949185  0  .  1
   O  O6  1  0.348805  0.697609  0.050815  0  .  1
   O  O7  1  0.348805  0.697609  0.449185  0  .  1
   O  O8  1  0.651196  0.302389  0.550815  0  .  1
   O  O9  1  0.188854  0.377708  0.750000  0  .  1
   O  O10  1  0.811146  0.622291  0.250000  0  .  1
   Ca  Ca11  1  0.521273  0.042545  0.750000  0  .  1
   Ca  Ca12  1  0.478728  0.957455  0.250000  0  .  1
   Fe  Fe13  1  0.000000  0.000000  0.500000  0  .  1
   Fe  Fe14  1  0.267978  0.535957  0.890585  0  .  1
   Fe  Fe15  1  0.732022  0.464042  0.109415  0  .  1
   Fe  Fe16  1  0.000000  0.000000  0.000000  0  .  1
   Fe  Fe17  1  0.732022  0.464042  0.390586  0  .  1
   Fe  Fe18  1  0.267978  0.535957  0.609414  0  .  1
 
