#\#CIF1.1
##########################################################################
#               Crystallographic Information Format file 
#               Produced by PyCifRW module
# 
#  This is a CIF file.  CIF has been adopted by the International
#  Union of Crystallography as the standard for data archiving and 
#  transmission.
#
#  For information on this file format, follow the CIF links at
#  http://www.iucr.org
##########################################################################

data_CaFe5O7
_symmetry_space_group_name_H-M          'P 1'
_cell_length_a                          3.0601856
_cell_length_b                          5.37005797576
_cell_length_c                          18.09213733
_cell_angle_alpha                       90.0
_cell_angle_beta                        90.0
_cell_angle_gamma                       106.554688673
_chemical_name_systematic               'Generated by pymatgen'
_symmetry_Int_Tables_number             1
_chemical_formula_structural            CaFe5O7
_chemical_formula_sum                   'Ca2 Fe10 O14'
_cell_volume                            284.99062651
_cell_formula_units_Z                   2
loop_
  _symmetry_equiv_pos_site_id
  _symmetry_equiv_pos_as_xyz
   1  'x, y, z'
 
loop_
  _atom_site_type_symbol
  _atom_site_label
  _atom_site_symmetry_multiplicity
  _atom_site_fract_x
  _atom_site_fract_y
  _atom_site_fract_z
  _atom_site_attached_hydrogens
  _atom_site_B_iso_or_equiv
  _atom_site_occupancy
   O  O1  1  0.634948  0.269895  0.966188  0  .  1
   O  O2  1  0.365053  0.730106  0.033812  0  .  1
   O  O3  1  0.365053  0.730106  0.466188  0  .  1
   O  O4  1  0.634948  0.269895  0.533812  0  .  1
   O  O5  1  0.172002  0.344006  0.830135  0  .  1
   O  O6  1  0.827998  0.655994  0.169865  0  .  1
   O  O7  1  0.827998  0.655994  0.330136  0  .  1
   O  O8  1  0.172002  0.344006  0.669865  0  .  1
   O  O9  1  0.921073  0.842145  0.886926  0  .  1
   O  O10  1  0.078927  0.157855  0.113074  0  .  1
   O  O11  1  0.078927  0.157855  0.386926  0  .  1
   O  O12  1  0.921073  0.842145  0.613074  0  .  1
   O  O13  1  0.461791  0.923583  0.750000  0  .  1
   O  O14  1  0.538210  0.076419  0.250000  0  .  1
   Ca  Ca15  1  0.794248  0.588494  0.750000  0  .  1
   Ca  Ca16  1  0.205753  0.411505  0.250000  0  .  1
   Fe  Fe17  1  0.276003  0.552004  0.573417  0  .  1
   Fe  Fe18  1  0.459760  0.919519  0.151278  0  .  1
   Fe  Fe19  1  0.000000  0.000000  0.500000  0  .  1
   Fe  Fe20  1  0.000000  0.000000  0.000000  0  .  1
   Fe  Fe21  1  0.540240  0.080480  0.848723  0  .  1
   Fe  Fe22  1  0.723997  0.447995  0.426583  0  .  1
   Fe  Fe23  1  0.723997  0.447995  0.073417  0  .  1
   Fe  Fe24  1  0.276003  0.552004  0.926583  0  .  1
   Fe  Fe25  1  0.540240  0.080480  0.651277  0  .  1
   Fe  Fe26  1  0.459760  0.919519  0.348723  0  .  1
 
