#\#CIF1.1
##########################################################################
#               Crystallographic Information Format file 
#               Produced by PyCifRW module
# 
#  This is a CIF file.  CIF has been adopted by the International
#  Union of Crystallography as the standard for data archiving and 
#  transmission.
#
#  For information on this file format, follow the CIF links at
#  http://www.iucr.org
##########################################################################

data_CaFeO2
_symmetry_space_group_name_H-M          'P 1'
_cell_length_a                          3.22645914
_cell_length_b                          5.66137816
_cell_length_c                          5.66137816
_cell_angle_alpha                       90.0
_cell_angle_beta                        90.0
_cell_angle_gamma                       90.0
_chemical_name_systematic               'Generated by pymatgen'
_symmetry_Int_Tables_number             1
_chemical_formula_structural            CaFeO2
_chemical_formula_sum                   'Ca2 Fe2 O4'
_cell_volume                            103.411895804
_cell_formula_units_Z                   2
loop_
  _symmetry_equiv_pos_site_id
  _symmetry_equiv_pos_as_xyz
   1  'x, y, z'
 
loop_
  _atom_site_type_symbol
  _atom_site_label
  _atom_site_symmetry_multiplicity
  _atom_site_fract_x
  _atom_site_fract_y
  _atom_site_fract_z
  _atom_site_attached_hydrogens
  _atom_site_B_iso_or_equiv
  _atom_site_occupancy
   O  O1  1  0.998251  0.751530  0.251531  0  .  1
   O  O2  1  0.001747  0.251531  0.248469  0  .  1
   O  O3  1  0.001747  0.748470  0.751530  0  .  1
   O  O4  1  0.998251  0.248469  0.748470  0  .  1
   Ca  Ca5  1  0.501052  0.500001  0.000000  0  .  1
   Ca  Ca6  1  0.498947  0.000000  0.500001  0  .  1
   Fe  Fe7  1  0.000000  0.000000  0.000000  0  .  1
   Fe  Fe8  1  0.000000  0.500001  0.500001  0  .  1
 
