#\#CIF1.1
##########################################################################
#               Crystallographic Information Format file 
#               Produced by PyCifRW module
# 
#  This is a CIF file.  CIF has been adopted by the International
#  Union of Crystallography as the standard for data archiving and 
#  transmission.
#
#  For information on this file format, follow the CIF links at
#  http://www.iucr.org
##########################################################################

data_CaGa4
_symmetry_space_group_name_H-M          'P 1'
_cell_length_a                          4.38625716519
_cell_length_b                          4.38625716163
_cell_length_c                          6.22506396591
_cell_angle_alpha                       110.628437194
_cell_angle_beta                        110.628437196
_cell_angle_gamma                       89.9999999699
_chemical_name_systematic               'Generated by pymatgen'
_symmetry_Int_Tables_number             1
_chemical_formula_structural            CaGa4
_chemical_formula_sum                   'Ca1 Ga4'
_cell_volume                            103.841704117
_cell_formula_units_Z                   1
loop_
  _symmetry_equiv_pos_site_id
  _symmetry_equiv_pos_as_xyz
   1  'x, y, z'
 
loop_
  _atom_site_type_symbol
  _atom_site_label
  _atom_site_symmetry_multiplicity
  _atom_site_fract_x
  _atom_site_fract_y
  _atom_site_fract_z
  _atom_site_attached_hydrogens
  _atom_site_B_iso_or_equiv
  _atom_site_occupancy
   Ca  Ca1  1  0.000000  0.000000  0.000000  0  .  1
   Ga  Ga2  1  0.750000  0.250000  0.500000  0  .  1
   Ga  Ga3  1  0.250000  0.750000  0.500000  0  .  1
   Ga  Ga4  1  0.385159  0.385159  0.770317  0  .  1
   Ga  Ga5  1  0.614841  0.614841  0.229683  0  .  1
 
