#\#CIF1.1
##########################################################################
#               Crystallographic Information Format file 
#               Produced by PyCifRW module
# 
#  This is a CIF file.  CIF has been adopted by the International
#  Union of Crystallography as the standard for data archiving and 
#  transmission.
#
#  For information on this file format, follow the CIF links at
#  http://www.iucr.org
##########################################################################

data_CaGe2
_symmetry_space_group_name_H-M          'P 1'
_cell_length_a                          10.3809786261
_cell_length_b                          10.3809786252
_cell_length_c                          10.3809786219
_cell_angle_alpha                       22.5656330704
_cell_angle_beta                        22.565633094
_cell_angle_gamma                       22.5656330883
_chemical_name_systematic               'Generated by pymatgen'
_symmetry_Int_Tables_number             1
_chemical_formula_structural            CaGe2
_chemical_formula_sum                   'Ca2 Ge4'
_cell_volume                            144.510138974
_cell_formula_units_Z                   2
loop_
  _symmetry_equiv_pos_site_id
  _symmetry_equiv_pos_as_xyz
   1  'x, y, z'
 
loop_
  _atom_site_type_symbol
  _atom_site_label
  _atom_site_symmetry_multiplicity
  _atom_site_fract_x
  _atom_site_fract_y
  _atom_site_fract_z
  _atom_site_attached_hydrogens
  _atom_site_B_iso_or_equiv
  _atom_site_occupancy
   Ca  Ca1  1  0.080380  0.080380  0.080380  0  .  1
   Ca  Ca2  1  0.919620  0.919620  0.919620  0  .  1
   Ge  Ge3  1  0.185186  0.185186  0.185186  0  .  1
   Ge  Ge4  1  0.814814  0.814814  0.814814  0  .  1
   Ge  Ge5  1  0.350399  0.350399  0.350399  0  .  1
   Ge  Ge6  1  0.649601  0.649601  0.649601  0  .  1
 
