#\#CIF1.1
##########################################################################
#               Crystallographic Information Format file 
#               Produced by PyCifRW module
# 
#  This is a CIF file.  CIF has been adopted by the International
#  Union of Crystallography as the standard for data archiving and 
#  transmission.
#
#  For information on this file format, follow the CIF links at
#  http://www.iucr.org
##########################################################################

data_CaMn7O8
_symmetry_space_group_name_H-M          'P 1'
_cell_length_a                          6.43080694698
_cell_length_b                          5.5674930828
_cell_length_c                          6.43080694698
_cell_angle_alpha                       106.934820703
_cell_angle_beta                        120.076312473
_cell_angle_gamma                       73.0651792972
_chemical_name_systematic               'Generated by pymatgen'
_symmetry_Int_Tables_number             1
_chemical_formula_structural            CaMn7O8
_chemical_formula_sum                   'Ca1 Mn7 O8'
_cell_volume                            187.645642185
_cell_formula_units_Z                   1
loop_
  _symmetry_equiv_pos_site_id
  _symmetry_equiv_pos_as_xyz
   1  'x, y, z'
 
loop_
  _atom_site_type_symbol
  _atom_site_label
  _atom_site_symmetry_multiplicity
  _atom_site_fract_x
  _atom_site_fract_y
  _atom_site_fract_z
  _atom_site_attached_hydrogens
  _atom_site_B_iso_or_equiv
  _atom_site_occupancy
   Ca  Ca1  1  0.250000  0.500000  0.750000  0  .  1
   Mn  Mn2  1  0.997258  0.000000  0.497258  0  .  1
   Mn  Mn3  1  0.500837  0.998115  0.499163  0  .  1
   Mn  Mn4  1  0.999163  0.001885  0.000837  0  .  1
   Mn  Mn5  1  0.250000  0.500000  0.250000  0  .  1
   Mn  Mn6  1  0.750000  0.500000  0.750000  0  .  1
   Mn  Mn7  1  0.502742  0.000000  0.002742  0  .  1
   Mn  Mn8  1  0.750000  0.500000  0.250000  0  .  1
   O  O9  1  0.123008  0.242272  0.876992  0  .  1
   O  O10  1  0.120353  0.245207  0.365711  0  .  1
   O  O11  1  0.634289  0.245207  0.879647  0  .  1
   O  O12  1  0.624993  0.253620  0.375007  0  .  1
   O  O13  1  0.376992  0.757727  0.623008  0  .  1
   O  O14  1  0.865711  0.754793  0.620353  0  .  1
   O  O15  1  0.379647  0.754793  0.134289  0  .  1
   O  O16  1  0.875007  0.746380  0.124993  0  .  1
 
