#\#CIF1.1
##########################################################################
#               Crystallographic Information Format file 
#               Produced by PyCifRW module
# 
#  This is a CIF file.  CIF has been adopted by the International
#  Union of Crystallography as the standard for data archiving and 
#  transmission.
#
#  For information on this file format, follow the CIF links at
#  http://www.iucr.org
##########################################################################

data_CaMn3O6
_symmetry_space_group_name_H-M          'P 1'
_cell_length_a                          8.74317284768
_cell_length_b                          9.65691485173
_cell_length_c                          11.30313651
_cell_angle_alpha                       90.0
_cell_angle_beta                        90.0
_cell_angle_gamma                       107.323709251
_chemical_name_systematic               'Generated by pymatgen'
_symmetry_Int_Tables_number             1
_chemical_formula_structural            CaMn3O6
_chemical_formula_sum                   'Ca8 Mn24 O48'
_cell_volume                            911.055854623
_cell_formula_units_Z                   8
loop_
  _symmetry_equiv_pos_site_id
  _symmetry_equiv_pos_as_xyz
   1  'x, y, z'
 
loop_
  _atom_site_type_symbol
  _atom_site_label
  _atom_site_symmetry_multiplicity
  _atom_site_fract_x
  _atom_site_fract_y
  _atom_site_fract_z
  _atom_site_attached_hydrogens
  _atom_site_B_iso_or_equiv
  _atom_site_occupancy
   Ca  Ca1  1  0.192217  0.745537  0.160936  0  .  1
   Ca  Ca2  1  0.807783  0.254463  0.839064  0  .  1
   Ca  Ca3  1  0.307783  0.754463  0.660936  0  .  1
   Ca  Ca4  1  0.692217  0.245537  0.339064  0  .  1
   Ca  Ca5  1  0.806850  0.742463  0.163919  0  .  1
   Ca  Ca6  1  0.693150  0.757537  0.663919  0  .  1
   Ca  Ca7  1  0.193150  0.257537  0.836081  0  .  1
   Ca  Ca8  1  0.306850  0.242463  0.336081  0  .  1
   Mn  Mn9  1  0.059211  0.930710  0.880114  0  .  1
   Mn  Mn10  1  0.445892  0.588745  0.903942  0  .  1
   Mn  Mn11  1  0.221689  0.415457  0.095507  0  .  1
   Mn  Mn12  1  0.227494  0.431044  0.606347  0  .  1
   Mn  Mn13  1  0.940789  0.069290  0.119886  0  .  1
   Mn  Mn14  1  0.440789  0.569290  0.380114  0  .  1
   Mn  Mn15  1  0.721689  0.915457  0.404493  0  .  1
   Mn  Mn16  1  0.391425  0.914818  0.399458  0  .  1
   Mn  Mn17  1  0.945892  0.088745  0.596058  0  .  1
   Mn  Mn18  1  0.054108  0.911255  0.403942  0  .  1
   Mn  Mn19  1  0.272506  0.068956  0.106347  0  .  1
   Mn  Mn20  1  0.108575  0.585182  0.899458  0  .  1
   Mn  Mn21  1  0.772506  0.568956  0.393653  0  .  1
   Mn  Mn22  1  0.778311  0.584543  0.904493  0  .  1
   Mn  Mn23  1  0.899563  0.447238  0.618749  0  .  1
   Mn  Mn24  1  0.278311  0.084543  0.595507  0  .  1
   Mn  Mn25  1  0.891425  0.414818  0.100542  0  .  1
   Mn  Mn26  1  0.727494  0.931044  0.893653  0  .  1
   Mn  Mn27  1  0.100437  0.552762  0.381251  0  .  1
   Mn  Mn28  1  0.399563  0.947238  0.881251  0  .  1
   Mn  Mn29  1  0.559211  0.430710  0.619886  0  .  1
   Mn  Mn30  1  0.600437  0.052762  0.118749  0  .  1
   Mn  Mn31  1  0.554108  0.411255  0.096058  0  .  1
   Mn  Mn32  1  0.608575  0.085182  0.600542  0  .  1
   O  O33  1  0.458502  0.129462  0.483869  0  .  1
   O  O34  1  0.112710  0.569805  0.577908  0  .  1
   O  O35  1  0.807202  0.195008  0.155000  0  .  1
   O  O36  1  0.343212  0.291770  0.651888  0  .  1
   O  O37  1  0.541498  0.870538  0.516131  0  .  1
   O  O38  1  0.739104  0.470047  0.204017  0  .  1
   O  O39  1  0.192798  0.804992  0.845000  0  .  1
   O  O40  1  0.387290  0.930195  0.077908  0  .  1
   O  O41  1  0.958502  0.629462  0.016131  0  .  1
   O  O42  1  0.260896  0.529953  0.795983  0  .  1
   O  O43  1  0.734824  0.927266  0.081636  0  .  1
   O  O44  1  0.902772  0.956868  0.298630  0  .  1
   O  O45  1  0.715014  0.389150  0.980232  0  .  1
   O  O46  1  0.097228  0.043132  0.701370  0  .  1
   O  O47  1  0.284986  0.610850  0.019768  0  .  1
   O  O48  1  0.484990  0.202591  0.159978  0  .  1
   O  O49  1  0.041498  0.370538  0.983869  0  .  1
   O  O50  1  0.597228  0.543132  0.798630  0  .  1
   O  O51  1  0.156788  0.208230  0.151888  0  .  1
   O  O52  1  0.441597  0.573572  0.587405  0  .  1
   O  O53  1  0.919387  0.521687  0.799551  0  .  1
   O  O54  1  0.239104  0.970047  0.295983  0  .  1
   O  O55  1  0.784986  0.110850  0.480232  0  .  1
   O  O56  1  0.887290  0.430195  0.422092  0  .  1
   O  O57  1  0.941597  0.073572  0.912595  0  .  1
   O  O58  1  0.843212  0.791770  0.848112  0  .  1
   O  O59  1  0.123314  0.115605  0.480521  0  .  1
   O  O60  1  0.612710  0.069805  0.922092  0  .  1
   O  O61  1  0.515010  0.797409  0.840022  0  .  1
   O  O62  1  0.234824  0.427266  0.418364  0  .  1
   O  O63  1  0.623314  0.615605  0.019479  0  .  1
   O  O64  1  0.015010  0.297409  0.659978  0  .  1
   O  O65  1  0.760896  0.029953  0.704017  0  .  1
   O  O66  1  0.558403  0.426428  0.412595  0  .  1
   O  O67  1  0.307202  0.695008  0.345000  0  .  1
   O  O68  1  0.984990  0.702591  0.340022  0  .  1
   O  O69  1  0.765176  0.572734  0.581636  0  .  1
   O  O70  1  0.580613  0.978313  0.299551  0  .  1
   O  O71  1  0.376686  0.384395  0.980521  0  .  1
   O  O72  1  0.876686  0.884395  0.519479  0  .  1
   O  O73  1  0.215014  0.889150  0.519768  0  .  1
   O  O74  1  0.058403  0.926428  0.087405  0  .  1
   O  O75  1  0.656788  0.708230  0.348112  0  .  1
   O  O76  1  0.692798  0.304992  0.655000  0  .  1
   O  O77  1  0.265176  0.072734  0.918364  0  .  1
   O  O78  1  0.080613  0.478313  0.200449  0  .  1
   O  O79  1  0.402772  0.456868  0.201370  0  .  1
   O  O80  1  0.419387  0.021687  0.700449  0  .  1
 
