#\#CIF1.1
##########################################################################
#               Crystallographic Information Format file 
#               Produced by PyCifRW module
# 
#  This is a CIF file.  CIF has been adopted by the International
#  Union of Crystallography as the standard for data archiving and 
#  transmission.
#
#  For information on this file format, follow the CIF links at
#  http://www.iucr.org
##########################################################################

data_CaMn2O4
_symmetry_space_group_name_H-M          'P 1'
_cell_length_a                          6.40755916
_cell_length_b                          9.83278056
_cell_length_c                          10.20699695
_cell_angle_alpha                       90.0
_cell_angle_beta                        90.0
_cell_angle_gamma                       90.0
_chemical_name_systematic               'Generated by pymatgen'
_symmetry_Int_Tables_number             1
_chemical_formula_structural            CaMn2O4
_chemical_formula_sum                   'Ca8 Mn16 O32'
_cell_volume                            643.082892784
_cell_formula_units_Z                   8
loop_
  _symmetry_equiv_pos_site_id
  _symmetry_equiv_pos_as_xyz
   1  'x, y, z'
 
loop_
  _atom_site_type_symbol
  _atom_site_label
  _atom_site_symmetry_multiplicity
  _atom_site_fract_x
  _atom_site_fract_y
  _atom_site_fract_z
  _atom_site_attached_hydrogens
  _atom_site_B_iso_or_equiv
  _atom_site_occupancy
   Ca  Ca1  1  0.839023  0.750000  0.149050  0  .  1
   Ca  Ca2  1  0.839023  0.250000  0.350950  0  .  1
   Ca  Ca3  1  0.160977  0.750000  0.649050  0  .  1
   Ca  Ca4  1  0.660977  0.750000  0.649050  0  .  1
   Ca  Ca5  1  0.339023  0.750000  0.149050  0  .  1
   Ca  Ca6  1  0.339023  0.250000  0.350950  0  .  1
   Ca  Ca7  1  0.660977  0.250000  0.850950  0  .  1
   Ca  Ca8  1  0.160977  0.250000  0.850950  0  .  1
   Mn  Mn9  1  0.102269  0.569235  0.388384  0  .  1
   Mn  Mn10  1  0.602269  0.069235  0.111616  0  .  1
   Mn  Mn11  1  0.397731  0.069235  0.611616  0  .  1
   Mn  Mn12  1  0.602269  0.430765  0.111616  0  .  1
   Mn  Mn13  1  0.897731  0.069235  0.611616  0  .  1
   Mn  Mn14  1  0.897731  0.430765  0.611616  0  .  1
   Mn  Mn15  1  0.397731  0.430765  0.611616  0  .  1
   Mn  Mn16  1  0.602269  0.930765  0.388384  0  .  1
   Mn  Mn17  1  0.102269  0.430765  0.111616  0  .  1
   Mn  Mn18  1  0.602269  0.569235  0.388384  0  .  1
   Mn  Mn19  1  0.397731  0.930765  0.888384  0  .  1
   Mn  Mn20  1  0.102269  0.069235  0.111616  0  .  1
   Mn  Mn21  1  0.897731  0.569235  0.888384  0  .  1
   Mn  Mn22  1  0.102269  0.930765  0.388384  0  .  1
   Mn  Mn23  1  0.897731  0.930765  0.888384  0  .  1
   Mn  Mn24  1  0.397731  0.569235  0.888384  0  .  1
   O  O25  1  0.399533  0.891207  0.527511  0  .  1
   O  O26  1  0.899533  0.891207  0.527511  0  .  1
   O  O27  1  0.600467  0.108793  0.472489  0  .  1
   O  O28  1  0.294333  0.000000  0.250000  0  .  1
   O  O29  1  0.100467  0.891207  0.027511  0  .  1
   O  O30  1  0.600467  0.891207  0.027511  0  .  1
   O  O31  1  0.100467  0.608793  0.027511  0  .  1
   O  O32  1  0.092136  0.250000  0.187701  0  .  1
   O  O33  1  0.899533  0.108793  0.972489  0  .  1
   O  O34  1  0.407864  0.250000  0.687701  0  .  1
   O  O35  1  0.907864  0.250000  0.687701  0  .  1
   O  O36  1  0.294333  0.500000  0.250000  0  .  1
   O  O37  1  0.705667  0.000000  0.750000  0  .  1
   O  O38  1  0.600467  0.608793  0.027511  0  .  1
   O  O39  1  0.399533  0.608793  0.527511  0  .  1
   O  O40  1  0.794333  0.000000  0.250000  0  .  1
   O  O41  1  0.907864  0.750000  0.812299  0  .  1
   O  O42  1  0.399533  0.108793  0.972489  0  .  1
   O  O43  1  0.092136  0.750000  0.312299  0  .  1
   O  O44  1  0.205667  0.500000  0.750000  0  .  1
   O  O45  1  0.592136  0.750000  0.312299  0  .  1
   O  O46  1  0.407864  0.750000  0.812299  0  .  1
   O  O47  1  0.399533  0.391207  0.972489  0  .  1
   O  O48  1  0.100467  0.108793  0.472489  0  .  1
   O  O49  1  0.899533  0.391207  0.972489  0  .  1
   O  O50  1  0.794333  0.500000  0.250000  0  .  1
   O  O51  1  0.705667  0.500000  0.750000  0  .  1
   O  O52  1  0.100467  0.391207  0.472489  0  .  1
   O  O53  1  0.205667  0.000000  0.750000  0  .  1
   O  O54  1  0.899533  0.608793  0.527511  0  .  1
   O  O55  1  0.600467  0.391207  0.472489  0  .  1
   O  O56  1  0.592136  0.250000  0.187701  0  .  1
 
