#\#CIF1.1
##########################################################################
#               Crystallographic Information Format file 
#               Produced by PyCifRW module
# 
#  This is a CIF file.  CIF has been adopted by the International
#  Union of Crystallography as the standard for data archiving and 
#  transmission.
#
#  For information on this file format, follow the CIF links at
#  http://www.iucr.org
##########################################################################

data_CaTi2O4
_symmetry_space_group_name_H-M          'P 1'
_cell_length_a                          3.07570398
_cell_length_b                          5.14673542388
_cell_length_c                          10.14998739
_cell_angle_alpha                       90.0
_cell_angle_beta                        90.0
_cell_angle_gamma                       107.385629452
_chemical_name_systematic               'Generated by pymatgen'
_symmetry_Int_Tables_number             1
_chemical_formula_structural            CaTi2O4
_chemical_formula_sum                   'Ca2 Ti4 O8'
_cell_volume                            153.332341635
_cell_formula_units_Z                   2
loop_
  _symmetry_equiv_pos_site_id
  _symmetry_equiv_pos_as_xyz
   1  'x, y, z'
 
loop_
  _atom_site_type_symbol
  _atom_site_label
  _atom_site_symmetry_multiplicity
  _atom_site_fract_x
  _atom_site_fract_y
  _atom_site_fract_z
  _atom_site_attached_hydrogens
  _atom_site_B_iso_or_equiv
  _atom_site_occupancy
   O  O1  1  0.232935  0.465871  0.393368  0  .  1
   O  O2  1  0.767065  0.534129  0.606632  0  .  1
   O  O3  1  0.767065  0.534129  0.893368  0  .  1
   O  O4  1  0.232935  0.465871  0.106632  0  .  1
   O  O5  1  0.938377  0.876755  0.250000  0  .  1
   O  O6  1  0.061623  0.123245  0.750000  0  .  1
   O  O7  1  0.500000  0.000000  0.000000  0  .  1
   O  O8  1  0.500000  0.000000  0.500000  0  .  1
   Ca  Ca9  1  0.379977  0.759954  0.750000  0  .  1
   Ca  Ca10  1  0.620023  0.240046  0.250000  0  .  1
   Ti  Ti11  1  0.875804  0.751609  0.064866  0  .  1
   Ti  Ti12  1  0.124196  0.248391  0.935134  0  .  1
   Ti  Ti13  1  0.875804  0.751609  0.435134  0  .  1
   Ti  Ti14  1  0.124196  0.248391  0.564866  0  .  1
 
