#\#CIF1.1
##########################################################################
#               Crystallographic Information Format file 
#               Produced by PyCifRW module
# 
#  This is a CIF file.  CIF has been adopted by the International
#  Union of Crystallography as the standard for data archiving and 
#  transmission.
#
#  For information on this file format, follow the CIF links at
#  http://www.iucr.org
##########################################################################

data_CaV2CoO7
_symmetry_space_group_name_H-M          'P 1'
_cell_length_a                          6.84003892289
_cell_length_b                          11.3985386248
_cell_length_c                          14.66726781
_cell_angle_alpha                       90.0
_cell_angle_beta                        90.0
_cell_angle_gamma                       99.600009951
_chemical_name_systematic               'Generated by pymatgen'
_symmetry_Int_Tables_number             1
_chemical_formula_structural            CaV2CoO7
_chemical_formula_sum                   'Ca8 V16 Co8 O56'
_cell_volume                            1127.54043918
_cell_formula_units_Z                   8
loop_
  _symmetry_equiv_pos_site_id
  _symmetry_equiv_pos_as_xyz
   1  'x, y, z'
 
loop_
  _atom_site_type_symbol
  _atom_site_label
  _atom_site_symmetry_multiplicity
  _atom_site_fract_x
  _atom_site_fract_y
  _atom_site_fract_z
  _atom_site_attached_hydrogens
  _atom_site_B_iso_or_equiv
  _atom_site_occupancy
   O  O1  1  0.757648  0.961405  0.981734  0  .  1
   O  O2  1  0.242352  0.538595  0.481734  0  .  1
   O  O3  1  0.242352  0.038595  0.018266  0  .  1
   O  O4  1  0.757648  0.461405  0.518266  0  .  1
   O  O5  1  0.988545  0.871025  0.856591  0  .  1
   O  O6  1  0.011455  0.628975  0.356591  0  .  1
   O  O7  1  0.011455  0.128975  0.143409  0  .  1
   O  O8  1  0.988545  0.371025  0.643409  0  .  1
   O  O9  1  0.993419  0.117476  0.859580  0  .  1
   O  O10  1  0.006581  0.382524  0.359580  0  .  1
   O  O11  1  0.006581  0.882524  0.140420  0  .  1
   O  O12  1  0.993419  0.617476  0.640420  0  .  1
   O  O13  1  0.679052  0.955607  0.286201  0  .  1
   O  O14  1  0.320948  0.544393  0.786201  0  .  1
   O  O15  1  0.320948  0.044393  0.713799  0  .  1
   O  O16  1  0.679052  0.455607  0.213799  0  .  1
   O  O17  1  0.962854  0.135402  0.365123  0  .  1
   O  O18  1  0.037146  0.364598  0.865123  0  .  1
   O  O19  1  0.037146  0.864598  0.634877  0  .  1
   O  O20  1  0.962854  0.635402  0.134877  0  .  1
   O  O21  1  0.050897  0.893621  0.341189  0  .  1
   O  O22  1  0.389735  0.822485  0.441510  0  .  1
   O  O23  1  0.949103  0.606379  0.841189  0  .  1
   O  O24  1  0.050897  0.393621  0.158811  0  .  1
   O  O25  1  0.721112  0.709420  0.479568  0  .  1
   O  O26  1  0.278888  0.790580  0.979568  0  .  1
   O  O27  1  0.278888  0.290580  0.520432  0  .  1
   O  O28  1  0.721112  0.209420  0.020432  0  .  1
   O  O29  1  0.764832  0.946850  0.472127  0  .  1
   O  O30  1  0.235168  0.553150  0.972127  0  .  1
   O  O31  1  0.235168  0.053150  0.527873  0  .  1
   O  O32  1  0.764832  0.446850  0.027873  0  .  1
   O  O33  1  0.427045  0.207684  0.894707  0  .  1
   O  O34  1  0.572955  0.292316  0.394707  0  .  1
   O  O35  1  0.572955  0.792316  0.105293  0  .  1
   O  O36  1  0.427045  0.707684  0.605293  0  .  1
   O  O37  1  0.690940  0.223022  0.750511  0  .  1
   O  O38  1  0.309060  0.276978  0.250511  0  .  1
   O  O39  1  0.309060  0.776978  0.249489  0  .  1
   O  O40  1  0.690940  0.723022  0.749489  0  .  1
   O  O41  1  0.634067  0.461760  0.704044  0  .  1
   O  O42  1  0.365933  0.038240  0.204044  0  .  1
   O  O43  1  0.365933  0.538240  0.295956  0  .  1
   O  O44  1  0.634067  0.961760  0.795956  0  .  1
   O  O45  1  0.300227  0.293621  0.729799  0  .  1
   O  O46  1  0.699773  0.206379  0.229799  0  .  1
   O  O47  1  0.699773  0.706379  0.270201  0  .  1
   O  O48  1  0.300227  0.793621  0.770201  0  .  1
   O  O49  1  0.597815  0.411191  0.877659  0  .  1
   O  O50  1  0.402185  0.088809  0.377659  0  .  1
   O  O51  1  0.402185  0.588809  0.122341  0  .  1
   O  O52  1  0.597815  0.911191  0.622341  0  .  1
   O  O53  1  0.389735  0.322485  0.058490  0  .  1
   O  O54  1  0.610265  0.177515  0.558490  0  .  1
   O  O55  1  0.610265  0.677515  0.941510  0  .  1
   O  O56  1  0.949103  0.106379  0.658811  0  .  1
   Ca  Ca57  1  0.079225  0.730741  0.507867  0  .  1
   Ca  Ca58  1  0.324091  0.970521  0.870876  0  .  1
   Ca  Ca59  1  0.675909  0.529479  0.370876  0  .  1
   Ca  Ca60  1  0.675909  0.029479  0.129124  0  .  1
   Ca  Ca61  1  0.324091  0.470521  0.629124  0  .  1
   Ca  Ca62  1  0.079225  0.230741  0.992133  0  .  1
   Ca  Ca63  1  0.920775  0.269259  0.492133  0  .  1
   Ca  Ca64  1  0.920775  0.769259  0.007867  0  .  1
   V  V65  1  0.838832  0.980573  0.871526  0  .  1
   V  V66  1  0.414884  0.685957  0.013027  0  .  1
   V  V67  1  0.414884  0.185957  0.486973  0  .  1
   V  V68  1  0.585116  0.314043  0.986973  0  .  1
   V  V69  1  0.507265  0.794673  0.704936  0  .  1
   V  V70  1  0.492735  0.705327  0.204936  0  .  1
   V  V71  1  0.492735  0.205327  0.295064  0  .  1
   V  V72  1  0.507265  0.294673  0.795064  0  .  1
   V  V73  1  0.585116  0.814043  0.513027  0  .  1
   V  V74  1  0.869895  0.483818  0.136124  0  .  1
   V  V75  1  0.130105  0.016182  0.636124  0  .  1
   V  V76  1  0.130105  0.516182  0.863876  0  .  1
   V  V77  1  0.161168  0.519427  0.371526  0  .  1
   V  V78  1  0.838832  0.480573  0.628474  0  .  1
   V  V79  1  0.161168  0.019427  0.128474  0  .  1
   V  V80  1  0.869895  0.983818  0.363876  0  .  1
   Co  Co81  1  0.634541  0.074329  0.675576  0  .  1
   Co  Co82  1  0.365459  0.425671  0.175576  0  .  1
   Co  Co83  1  0.365459  0.925671  0.324424  0  .  1
   Co  Co84  1  0.634541  0.574329  0.824424  0  .  1
   Co  Co85  1  0.000178  0.246607  0.753906  0  .  1
   Co  Co86  1  0.999822  0.253393  0.253906  0  .  1
   Co  Co87  1  0.999822  0.753393  0.246094  0  .  1
   Co  Co88  1  0.000178  0.746607  0.746094  0  .  1
 
