#\#CIF1.1
##########################################################################
#               Crystallographic Information Format file 
#               Produced by PyCifRW module
# 
#  This is a CIF file.  CIF has been adopted by the International
#  Union of Crystallography as the standard for data archiving and 
#  transmission.
#
#  For information on this file format, follow the CIF links at
#  http://www.iucr.org
##########################################################################

data_CaV2CuO7
_symmetry_space_group_name_H-M          'P 1'
_cell_length_a                          8.9315016
_cell_length_b                          10.3282995834
_cell_length_c                          10.3406390742
_cell_angle_alpha                       91.8874252586
_cell_angle_beta                        90.0
_cell_angle_gamma                       90.0
_chemical_name_systematic               'Generated by pymatgen'
_symmetry_Int_Tables_number             1
_chemical_formula_structural            CaV2CuO7
_chemical_formula_sum                   'Ca6 V12 Cu6 O42'
_cell_volume                            953.377733353
_cell_formula_units_Z                   6
loop_
  _symmetry_equiv_pos_site_id
  _symmetry_equiv_pos_as_xyz
   1  'x, y, z'
 
loop_
  _atom_site_type_symbol
  _atom_site_label
  _atom_site_symmetry_multiplicity
  _atom_site_fract_x
  _atom_site_fract_y
  _atom_site_fract_z
  _atom_site_attached_hydrogens
  _atom_site_B_iso_or_equiv
  _atom_site_occupancy
   Ca  Ca1  1  0.444456  0.177299  0.568499  0  .  1
   Ca  Ca2  1  0.935584  0.500000  0.750000  0  .  1
   Ca  Ca3  1  0.444456  0.822701  0.931501  0  .  1
   Ca  Ca4  1  0.064416  0.500000  0.250000  0  .  1
   Ca  Ca5  1  0.555544  0.822701  0.431501  0  .  1
   Ca  Ca6  1  0.555544  0.177299  0.068499  0  .  1
   V  V7  1  0.202943  0.164871  0.288167  0  .  1
   V  V8  1  0.747120  0.162505  0.382306  0  .  1
   V  V9  1  0.252880  0.162505  0.882306  0  .  1
   V  V10  1  0.797057  0.164871  0.788167  0  .  1
   V  V11  1  0.296480  0.474624  0.958817  0  .  1
   V  V12  1  0.747120  0.837495  0.117694  0  .  1
   V  V13  1  0.703520  0.474624  0.458817  0  .  1
   V  V14  1  0.252880  0.837495  0.617694  0  .  1
   V  V15  1  0.296480  0.525376  0.541183  0  .  1
   V  V16  1  0.703520  0.525376  0.041183  0  .  1
   V  V17  1  0.797057  0.835129  0.711833  0  .  1
   V  V18  1  0.202943  0.835129  0.211833  0  .  1
   Cu  Cu19  1  0.935033  0.806561  0.409954  0  .  1
   Cu  Cu20  1  0.064967  0.193439  0.590046  0  .  1
   Cu  Cu21  1  0.442737  0.500000  0.250000  0  .  1
   Cu  Cu22  1  0.935033  0.193439  0.090046  0  .  1
   Cu  Cu23  1  0.557263  0.500000  0.750000  0  .  1
   Cu  Cu24  1  0.064967  0.806561  0.909954  0  .  1
   O  O25  1  0.783247  0.192869  0.956167  0  .  1
   O  O26  1  0.773195  0.828630  0.285557  0  .  1
   O  O27  1  0.852449  0.000000  0.750000  0  .  1
   O  O28  1  0.876602  0.509500  0.099472  0  .  1
   O  O29  1  0.380771  0.951944  0.576279  0  .  1
   O  O30  1  0.927137  0.268764  0.716974  0  .  1
   O  O31  1  0.356411  0.306569  0.940056  0  .  1
   O  O32  1  0.123398  0.509500  0.599472  0  .  1
   O  O33  1  0.715380  0.483674  0.875957  0  .  1
   O  O34  1  0.380771  0.048056  0.923721  0  .  1
   O  O35  1  0.715380  0.516326  0.624043  0  .  1
   O  O36  1  0.420049  0.576395  0.877878  0  .  1
   O  O37  1  0.910217  0.850478  0.033127  0  .  1
   O  O38  1  0.072863  0.268764  0.216974  0  .  1
   O  O39  1  0.643589  0.693431  0.059944  0  .  1
   O  O40  1  0.356411  0.693431  0.559944  0  .  1
   O  O41  1  0.927137  0.731236  0.783026  0  .  1
   O  O42  1  0.619229  0.048056  0.423721  0  .  1
   O  O43  1  0.216753  0.192869  0.456167  0  .  1
   O  O44  1  0.579951  0.423605  0.122122  0  .  1
   O  O45  1  0.375507  0.809237  0.270112  0  .  1
   O  O46  1  0.284620  0.516326  0.124043  0  .  1
   O  O47  1  0.089783  0.850478  0.533127  0  .  1
   O  O48  1  0.284620  0.483674  0.375957  0  .  1
   O  O49  1  0.876602  0.490500  0.400528  0  .  1
   O  O50  1  0.579951  0.576395  0.377878  0  .  1
   O  O51  1  0.123398  0.490500  0.900528  0  .  1
   O  O52  1  0.624493  0.809237  0.770112  0  .  1
   O  O53  1  0.624493  0.190763  0.729888  0  .  1
   O  O54  1  0.089783  0.149522  0.966873  0  .  1
   O  O55  1  0.072863  0.731236  0.283026  0  .  1
   O  O56  1  0.783247  0.807131  0.543833  0  .  1
   O  O57  1  0.147551  0.000000  0.250000  0  .  1
   O  O58  1  0.226805  0.828630  0.785557  0  .  1
   O  O59  1  0.619229  0.951944  0.076279  0  .  1
   O  O60  1  0.910217  0.149522  0.466873  0  .  1
   O  O61  1  0.216753  0.807131  0.043833  0  .  1
   O  O62  1  0.773195  0.171370  0.214443  0  .  1
   O  O63  1  0.420049  0.423605  0.622122  0  .  1
   O  O64  1  0.643589  0.306569  0.440056  0  .  1
   O  O65  1  0.226805  0.171370  0.714443  0  .  1
   O  O66  1  0.375507  0.190763  0.229888  0  .  1
 
