#\#CIF1.1
##########################################################################
#               Crystallographic Information Format file 
#               Produced by PyCifRW module
# 
#  This is a CIF file.  CIF has been adopted by the International
#  Union of Crystallography as the standard for data archiving and 
#  transmission.
#
#  For information on this file format, follow the CIF links at
#  http://www.iucr.org
##########################################################################

data_CaV2O5
_symmetry_space_group_name_H-M          'P 1'
_cell_length_a                          3.61681813
_cell_length_b                          5.07507307
_cell_length_c                          11.54747559
_cell_angle_alpha                       90.0
_cell_angle_beta                        90.0
_cell_angle_gamma                       90.0
_chemical_name_systematic               'Generated by pymatgen'
_symmetry_Int_Tables_number             1
_chemical_formula_structural            CaV2O5
_chemical_formula_sum                   'Ca2 V4 O10'
_cell_volume                            211.961031056
_cell_formula_units_Z                   2
loop_
  _symmetry_equiv_pos_site_id
  _symmetry_equiv_pos_as_xyz
   1  'x, y, z'
 
loop_
  _atom_site_type_symbol
  _atom_site_label
  _atom_site_symmetry_multiplicity
  _atom_site_fract_x
  _atom_site_fract_y
  _atom_site_fract_z
  _atom_site_attached_hydrogens
  _atom_site_B_iso_or_equiv
  _atom_site_occupancy
   O  O1  1  0.750000  0.443054  0.750000  0  .  1
   O  O2  1  0.249999  0.556945  0.250000  0  .  1
   O  O3  1  0.750000  0.540286  0.074343  0  .  1
   O  O4  1  0.249999  0.459715  0.925656  0  .  1
   O  O5  1  0.750000  0.540286  0.425656  0  .  1
   O  O6  1  0.249999  0.459715  0.574344  0  .  1
   O  O7  1  0.249999  0.067517  0.373340  0  .  1
   O  O8  1  0.750000  0.932484  0.626660  0  .  1
   O  O9  1  0.750000  0.932484  0.873339  0  .  1
   O  O10  1  0.249999  0.067517  0.126661  0  .  1
   Ca  Ca11  1  0.750000  0.851199  0.250000  0  .  1
   Ca  Ca12  1  0.249999  0.148800  0.750000  0  .  1
   V  V13  1  0.249999  0.393625  0.097363  0  .  1
   V  V14  1  0.750000  0.606374  0.902637  0  .  1
   V  V15  1  0.750000  0.606374  0.597363  0  .  1
   V  V16  1  0.249999  0.393625  0.402637  0  .  1
 
