#\#CIF1.1
##########################################################################
#               Crystallographic Information Format file 
#               Produced by PyCifRW module
# 
#  This is a CIF file.  CIF has been adopted by the International
#  Union of Crystallography as the standard for data archiving and 
#  transmission.
#
#  For information on this file format, follow the CIF links at
#  http://www.iucr.org
##########################################################################

data_CaV3O7
_symmetry_space_group_name_H-M          'P 1'
_cell_length_a                          5.3805789
_cell_length_b                          10.45324456
_cell_length_c                          10.89504236
_cell_angle_alpha                       90.0
_cell_angle_beta                        90.0
_cell_angle_gamma                       90.0
_chemical_name_systematic               'Generated by pymatgen'
_symmetry_Int_Tables_number             1
_chemical_formula_structural            CaV3O7
_chemical_formula_sum                   'Ca4 V12 O28'
_cell_volume                            612.786287547
_cell_formula_units_Z                   4
loop_
  _symmetry_equiv_pos_site_id
  _symmetry_equiv_pos_as_xyz
   1  'x, y, z'
 
loop_
  _atom_site_type_symbol
  _atom_site_label
  _atom_site_symmetry_multiplicity
  _atom_site_fract_x
  _atom_site_fract_y
  _atom_site_fract_z
  _atom_site_attached_hydrogens
  _atom_site_B_iso_or_equiv
  _atom_site_occupancy
   O  O1  1  0.932722  0.119120  0.721688  0  .  1
   O  O2  1  0.432722  0.880880  0.778312  0  .  1
   O  O3  1  0.067278  0.619120  0.278312  0  .  1
   O  O4  1  0.567278  0.380880  0.221688  0  .  1
   O  O5  1  0.067278  0.880880  0.278312  0  .  1
   O  O6  1  0.567278  0.119120  0.221688  0  .  1
   O  O7  1  0.932722  0.380880  0.721688  0  .  1
   O  O8  1  0.432722  0.619120  0.778312  0  .  1
   O  O9  1  0.457384  0.118639  0.717033  0  .  1
   O  O10  1  0.957384  0.881361  0.782967  0  .  1
   O  O11  1  0.542616  0.618639  0.282967  0  .  1
   O  O12  1  0.042616  0.381361  0.217033  0  .  1
   O  O13  1  0.542616  0.881361  0.282967  0  .  1
   O  O14  1  0.042616  0.118639  0.217033  0  .  1
   O  O15  1  0.457384  0.381361  0.717033  0  .  1
   O  O16  1  0.957384  0.618639  0.782967  0  .  1
   O  O17  1  0.175553  0.750000  0.564035  0  .  1
   O  O18  1  0.675553  0.250000  0.935965  0  .  1
   O  O19  1  0.824447  0.250000  0.435965  0  .  1
   O  O20  1  0.324447  0.750000  0.064035  0  .  1
   O  O21  1  0.217062  0.422612  0.954936  0  .  1
   O  O22  1  0.717062  0.577388  0.545064  0  .  1
   O  O23  1  0.782938  0.922612  0.045064  0  .  1
   O  O24  1  0.282938  0.077388  0.454936  0  .  1
   O  O25  1  0.782938  0.577388  0.045064  0  .  1
   O  O26  1  0.282938  0.422612  0.454936  0  .  1
   O  O27  1  0.217062  0.077388  0.954936  0  .  1
   O  O28  1  0.717062  0.922612  0.545064  0  .  1
   Ca  Ca29  1  0.680539  0.750000  0.921200  0  .  1
   Ca  Ca30  1  0.180539  0.250000  0.578800  0  .  1
   Ca  Ca31  1  0.319461  0.250000  0.078800  0  .  1
   Ca  Ca32  1  0.819461  0.750000  0.421200  0  .  1
   V  V33  1  0.301535  0.024076  0.311863  0  .  1
   V  V34  1  0.801535  0.975924  0.188137  0  .  1
   V  V35  1  0.698465  0.524076  0.688137  0  .  1
   V  V36  1  0.198465  0.475924  0.811863  0  .  1
   V  V37  1  0.309694  0.750000  0.216264  0  .  1
   V  V38  1  0.809694  0.250000  0.283736  0  .  1
   V  V39  1  0.690306  0.250000  0.783736  0  .  1
   V  V40  1  0.190306  0.750000  0.716264  0  .  1
   V  V41  1  0.801535  0.524076  0.188137  0  .  1
   V  V42  1  0.301535  0.475924  0.311863  0  .  1
   V  V43  1  0.198465  0.024076  0.811863  0  .  1
   V  V44  1  0.698465  0.975924  0.688137  0  .  1
 
