#\#CIF1.1
##########################################################################
#               Crystallographic Information Format file 
#               Produced by PyCifRW module
# 
#  This is a CIF file.  CIF has been adopted by the International
#  Union of Crystallography as the standard for data archiving and 
#  transmission.
#
#  For information on this file format, follow the CIF links at
#  http://www.iucr.org
##########################################################################

data_CaV4O9
_symmetry_space_group_name_H-M          'P 1'
_cell_length_a                          5.18936087
_cell_length_b                          8.4272203
_cell_length_c                          8.4272203
_cell_angle_alpha                       90.0
_cell_angle_beta                        90.0
_cell_angle_gamma                       90.0
_chemical_name_systematic               'Generated by pymatgen'
_symmetry_Int_Tables_number             1
_chemical_formula_structural            CaV4O9
_chemical_formula_sum                   'Ca2 V8 O18'
_cell_volume                            368.53824814
_cell_formula_units_Z                   2
loop_
  _symmetry_equiv_pos_site_id
  _symmetry_equiv_pos_as_xyz
   1  'x, y, z'
 
loop_
  _atom_site_type_symbol
  _atom_site_label
  _atom_site_symmetry_multiplicity
  _atom_site_fract_x
  _atom_site_fract_y
  _atom_site_fract_z
  _atom_site_attached_hydrogens
  _atom_site_B_iso_or_equiv
  _atom_site_occupancy
   O  O1  1  0.499999  0.750000  0.250000  0  .  1
   O  O2  1  0.499999  0.250001  0.750000  0  .  1
   O  O3  1  0.063225  0.680212  0.995798  0  .  1
   O  O4  1  0.063225  0.504203  0.680211  0  .  1
   O  O5  1  0.063225  0.995798  0.819789  0  .  1
   O  O6  1  0.063225  0.819789  0.504202  0  .  1
   O  O7  1  0.936776  0.319789  0.004202  0  .  1
   O  O8  1  0.936776  0.495797  0.319789  0  .  1
   O  O9  1  0.936776  0.004202  0.180211  0  .  1
   O  O10  1  0.936776  0.180211  0.495797  0  .  1
   O  O11  1  0.460889  0.043070  0.356944  0  .  1
   O  O12  1  0.460889  0.143055  0.043071  0  .  1
   O  O13  1  0.460889  0.356944  0.456930  0  .  1
   O  O14  1  0.460889  0.456930  0.143056  0  .  1
   O  O15  1  0.539110  0.543070  0.856944  0  .  1
   O  O16  1  0.539110  0.856944  0.956930  0  .  1
   O  O17  1  0.539110  0.643056  0.543070  0  .  1
   O  O18  1  0.539110  0.956929  0.643056  0  .  1
   Ca  Ca19  1  0.157274  0.250000  0.250000  0  .  1
   Ca  Ca20  1  0.842727  0.750000  0.749999  0  .  1
   V  V21  1  0.626793  0.535082  0.340499  0  .  1
   V  V22  1  0.373208  0.840498  0.464919  0  .  1
   V  V23  1  0.626793  0.340498  0.964919  0  .  1
   V  V24  1  0.373208  0.035081  0.840498  0  .  1
   V  V25  1  0.626793  0.964919  0.159501  0  .  1
   V  V26  1  0.626793  0.159502  0.535082  0  .  1
   V  V27  1  0.373208  0.464919  0.659501  0  .  1
   V  V28  1  0.373208  0.659501  0.035081  0  .  1
 
