#\#CIF1.1
##########################################################################
#               Crystallographic Information Format file 
#               Produced by PyCifRW module
# 
#  This is a CIF file.  CIF has been adopted by the International
#  Union of Crystallography as the standard for data archiving and 
#  transmission.
#
#  For information on this file format, follow the CIF links at
#  http://www.iucr.org
##########################################################################

data_Ce(CoSi)2
_symmetry_space_group_name_H-M          'P 1'
_cell_length_a                          3.93422541021
_cell_length_b                          3.93422540895
_cell_length_c                          5.64181485293
_cell_angle_alpha                       110.405783448
_cell_angle_beta                        110.405783374
_cell_angle_gamma                       89.9999999703
_chemical_name_systematic               'Generated by pymatgen'
_symmetry_Int_Tables_number             1
_chemical_formula_structural            Ce(CoSi)2
_chemical_formula_sum                   'Ce1 Co2 Si2'
_cell_volume                            75.9706744653
_cell_formula_units_Z                   1
loop_
  _symmetry_equiv_pos_site_id
  _symmetry_equiv_pos_as_xyz
   1  'x, y, z'
 
loop_
  _atom_site_type_symbol
  _atom_site_label
  _atom_site_symmetry_multiplicity
  _atom_site_fract_x
  _atom_site_fract_y
  _atom_site_fract_z
  _atom_site_attached_hydrogens
  _atom_site_B_iso_or_equiv
  _atom_site_occupancy
   Si  Si1  1  0.630266  0.630266  0.260531  0  .  1
   Si  Si2  1  0.369734  0.369734  0.739469  0  .  1
   Co  Co3  1  0.250000  0.750000  0.500000  0  .  1
   Co  Co4  1  0.750000  0.250000  0.500000  0  .  1
   Ce  Ce5  1  0.000000  0.000000  0.000000  0  .  1
 
