#\#CIF1.1
##########################################################################
#               Crystallographic Information Format file 
#               Produced by PyCifRW module
# 
#  This is a CIF file.  CIF has been adopted by the International
#  Union of Crystallography as the standard for data archiving and 
#  transmission.
#
#  For information on this file format, follow the CIF links at
#  http://www.iucr.org
##########################################################################

data_Ce(GeRu)2
_symmetry_space_group_name_H-M          'P 1'
_cell_length_a                          4.29063919579
_cell_length_b                          4.29063919028
_cell_length_c                          5.85192449482
_cell_angle_alpha                       111.50612554
_cell_angle_beta                        111.506125515
_cell_angle_gamma                       89.9999999848
_chemical_name_systematic               'Generated by pymatgen'
_symmetry_Int_Tables_number             1
_chemical_formula_structural            Ce(GeRu)2
_chemical_formula_sum                   'Ce1 Ge2 Ru2'
_cell_volume                            92.1219516926
_cell_formula_units_Z                   1
loop_
  _symmetry_equiv_pos_site_id
  _symmetry_equiv_pos_as_xyz
   1  'x, y, z'
 
loop_
  _atom_site_type_symbol
  _atom_site_label
  _atom_site_symmetry_multiplicity
  _atom_site_fract_x
  _atom_site_fract_y
  _atom_site_fract_z
  _atom_site_attached_hydrogens
  _atom_site_B_iso_or_equiv
  _atom_site_occupancy
   Ge  Ge1  1  0.631042  0.631042  0.262084  0  .  1
   Ge  Ge2  1  0.368958  0.368958  0.737916  0  .  1
   Ru  Ru3  1  0.750000  0.250000  0.500000  0  .  1
   Ru  Ru4  1  0.250000  0.750000  0.500000  0  .  1
   Ce  Ce5  1  0.000000  0.000000  0.000000  0  .  1
 
