#\#CIF1.1
##########################################################################
#               Crystallographic Information Format file 
#               Produced by PyCifRW module
# 
#  This is a CIF file.  CIF has been adopted by the International
#  Union of Crystallography as the standard for data archiving and 
#  transmission.
#
#  For information on this file format, follow the CIF links at
#  http://www.iucr.org
##########################################################################

data_Ce(NiP)2
_symmetry_space_group_name_H-M          'P 1'
_cell_length_a                          3.94173093805
_cell_length_b                          3.94173152239
_cell_length_c                          5.46772023409
_cell_angle_alpha                       111.128122068
_cell_angle_beta                        111.128125311
_cell_angle_gamma                       90.0000033763
_chemical_name_systematic               'Generated by pymatgen'
_symmetry_Int_Tables_number             1
_chemical_formula_structural            Ce(NiP)2
_chemical_formula_sum                   'Ce1 Ni2 P2'
_cell_volume                            73.0867493072
_cell_formula_units_Z                   1
loop_
  _symmetry_equiv_pos_site_id
  _symmetry_equiv_pos_as_xyz
   1  'x, y, z'
 
loop_
  _atom_site_type_symbol
  _atom_site_label
  _atom_site_symmetry_multiplicity
  _atom_site_fract_x
  _atom_site_fract_y
  _atom_site_fract_z
  _atom_site_attached_hydrogens
  _atom_site_B_iso_or_equiv
  _atom_site_occupancy
   Ce  Ce1  1  0.000000  0.000000  0.000000  0  .  1
   Ni  Ni2  1  0.750000  0.250000  0.500000  0  .  1
   Ni  Ni3  1  0.250000  0.750000  0.500000  0  .  1
   P  P4  1  0.375229  0.375229  0.750458  0  .  1
   P  P5  1  0.624771  0.624771  0.249542  0  .  1
 
