#\#CIF1.1
##########################################################################
#               Crystallographic Information Format file 
#               Produced by PyCifRW module
# 
#  This is a CIF file.  CIF has been adopted by the International
#  Union of Crystallography as the standard for data archiving and 
#  transmission.
#
#  For information on this file format, follow the CIF links at
#  http://www.iucr.org
##########################################################################

data_Cr5AgS8
_symmetry_space_group_name_H-M          'P 1'
_cell_length_a                          12.6206606622
_cell_length_b                          50.5626417987
_cell_length_c                          25.0416556855
_cell_angle_alpha                       7.89557819869
_cell_angle_beta                        13.8323480844
_cell_angle_gamma                       15.8888835653
_chemical_name_systematic               'Generated by pymatgen'
_symmetry_Int_Tables_number             1
_chemical_formula_structural            Cr5AgS8
_chemical_formula_sum                   'Cr10 Ag2 S16'
_cell_volume                            524.816074462
_cell_formula_units_Z                   2
loop_
  _symmetry_equiv_pos_site_id
  _symmetry_equiv_pos_as_xyz
   1  'x, y, z'
 
loop_
  _atom_site_type_symbol
  _atom_site_label
  _atom_site_symmetry_multiplicity
  _atom_site_fract_x
  _atom_site_fract_y
  _atom_site_fract_z
  _atom_site_attached_hydrogens
  _atom_site_B_iso_or_equiv
  _atom_site_occupancy
   Cr  Cr1  1  0.095668  0.000000  0.062126  0  .  1
   Cr  Cr2  1  0.000000  0.250000  0.000000  0  .  1
   Cr  Cr3  1  0.059968  0.247860  0.093359  0  .  1
   Cr  Cr4  1  0.093552  0.500000  0.064637  0  .  1
   Cr  Cr5  1  0.000000  0.750000  0.000000  0  .  1
   Cr  Cr6  1  0.059968  0.752140  0.084799  0  .  1
   Cr  Cr7  1  0.940032  0.252140  0.906641  0  .  1
   Cr  Cr8  1  0.904332  0.500000  0.937874  0  .  1
   Cr  Cr9  1  0.940032  0.747860  0.915201  0  .  1
   Cr  Cr10  1  0.906448  0.000000  0.935363  0  .  1
   Ag  Ag11  1  0.146826  0.000000  0.161505  0  .  1
   Ag  Ag12  1  0.853174  0.500000  0.838495  0  .  1
   S  S13  1  0.229594  0.000000  0.218024  0  .  1
   S  S14  1  0.359509  0.000000  0.376938  0  .  1
   S  S15  1  0.213064  0.250688  0.229827  0  .  1
   S  S16  1  0.400485  0.251404  0.355404  0  .  1
   S  S17  1  0.226750  0.500000  0.218753  0  .  1
   S  S18  1  0.599515  0.248596  0.644596  0  .  1
   S  S19  1  0.362658  0.500000  0.375891  0  .  1
   S  S20  1  0.786936  0.249312  0.770173  0  .  1
   S  S21  1  0.213064  0.749312  0.232581  0  .  1
   S  S22  1  0.640491  0.500000  0.623062  0  .  1
   S  S23  1  0.400485  0.748596  0.361022  0  .  1
   S  S24  1  0.770406  0.500000  0.781976  0  .  1
   S  S25  1  0.599515  0.751404  0.638978  0  .  1
   S  S26  1  0.786936  0.750688  0.767419  0  .  1
   S  S27  1  0.637342  0.000000  0.624109  0  .  1
   S  S28  1  0.773250  0.000000  0.781247  0  .  1
 
