#\#CIF1.1
##########################################################################
#               Crystallographic Information Format file 
#               Produced by PyCifRW module
# 
#  This is a CIF file.  CIF has been adopted by the International
#  Union of Crystallography as the standard for data archiving and 
#  transmission.
#
#  For information on this file format, follow the CIF links at
#  http://www.iucr.org
##########################################################################

data_CrCl3
_symmetry_space_group_name_H-M          'P 1'
_cell_length_a                          7.59848576859
_cell_length_b                          7.59848531283
_cell_length_c                          7.59848523098
_cell_angle_alpha                       46.8855183088
_cell_angle_beta                        46.8855207431
_cell_angle_gamma                       46.8855185238
_chemical_name_systematic               'Generated by pymatgen'
_symmetry_Int_Tables_number             1
_chemical_formula_structural            CrCl3
_chemical_formula_sum                   'Cr2 Cl6'
_cell_volume                            213.650308761
_cell_formula_units_Z                   2
loop_
  _symmetry_equiv_pos_site_id
  _symmetry_equiv_pos_as_xyz
   1  'x, y, z'
 
loop_
  _atom_site_type_symbol
  _atom_site_label
  _atom_site_symmetry_multiplicity
  _atom_site_fract_x
  _atom_site_fract_y
  _atom_site_fract_z
  _atom_site_attached_hydrogens
  _atom_site_B_iso_or_equiv
  _atom_site_occupancy
   Cr  Cr1  1  0.666683  0.666683  0.666683  0  .  1
   Cr  Cr2  1  0.333317  0.333317  0.333317  0  .  1
   Cl  Cl3  1  0.577351  0.934239  0.291077  0  .  1
   Cl  Cl4  1  0.708923  0.422649  0.065761  0  .  1
   Cl  Cl5  1  0.291077  0.577351  0.934239  0  .  1
   Cl  Cl6  1  0.065761  0.708923  0.422649  0  .  1
   Cl  Cl7  1  0.422649  0.065761  0.708923  0  .  1
   Cl  Cl8  1  0.934239  0.291077  0.577351  0  .  1
 
