#\#CIF1.1
##########################################################################
#               Crystallographic Information Format file 
#               Produced by PyCifRW module
# 
#  This is a CIF file.  CIF has been adopted by the International
#  Union of Crystallography as the standard for data archiving and 
#  transmission.
#
#  For information on this file format, follow the CIF links at
#  http://www.iucr.org
##########################################################################

data_CrClO
_symmetry_space_group_name_H-M          'P 1'
_cell_length_a                          3.24979776
_cell_length_b                          3.93935304
_cell_length_c                          8.02321056
_cell_angle_alpha                       90.0
_cell_angle_beta                        90.0
_cell_angle_gamma                       90.0
_chemical_name_systematic               'Generated by pymatgen'
_symmetry_Int_Tables_number             1
_chemical_formula_structural            CrClO
_chemical_formula_sum                   'Cr2 Cl2 O2'
_cell_volume                            102.713949408
_cell_formula_units_Z                   2
loop_
  _symmetry_equiv_pos_site_id
  _symmetry_equiv_pos_as_xyz
   1  'x, y, z'
 
loop_
  _atom_site_type_symbol
  _atom_site_label
  _atom_site_symmetry_multiplicity
  _atom_site_fract_x
  _atom_site_fract_y
  _atom_site_fract_z
  _atom_site_attached_hydrogens
  _atom_site_B_iso_or_equiv
  _atom_site_occupancy
   O  O1  1  0.750001  0.250000  0.948263  0  .  1
   O  O2  1  0.249999  0.750001  0.051738  0  .  1
   Cl  Cl3  1  0.249999  0.750001  0.678839  0  .  1
   Cl  Cl4  1  0.750001  0.250000  0.321161  0  .  1
   Cr  Cr5  1  0.249999  0.250000  0.107296  0  .  1
   Cr  Cr6  1  0.750001  0.750001  0.892705  0  .  1
 
