#\#CIF1.1
##########################################################################
#               Crystallographic Information Format file 
#               Produced by PyCifRW module
# 
#  This is a CIF file.  CIF has been adopted by the International
#  Union of Crystallography as the standard for data archiving and 
#  transmission.
#
#  For information on this file format, follow the CIF links at
#  http://www.iucr.org
##########################################################################

data_CsLiCl2
_symmetry_space_group_name_H-M          'P 1'
_cell_length_a                          4.9469086
_cell_length_b                          4.9469086
_cell_length_c                          9.64907812
_cell_angle_alpha                       90.0
_cell_angle_beta                        90.0
_cell_angle_gamma                       90.0
_chemical_name_systematic               'Generated by pymatgen'
_symmetry_Int_Tables_number             1
_chemical_formula_structural            CsLiCl2
_chemical_formula_sum                   'Cs2 Li2 Cl4'
_cell_volume                            236.131320164
_cell_formula_units_Z                   2
loop_
  _symmetry_equiv_pos_site_id
  _symmetry_equiv_pos_as_xyz
   1  'x, y, z'
 
loop_
  _atom_site_type_symbol
  _atom_site_label
  _atom_site_symmetry_multiplicity
  _atom_site_fract_x
  _atom_site_fract_y
  _atom_site_fract_z
  _atom_site_attached_hydrogens
  _atom_site_B_iso_or_equiv
  _atom_site_occupancy
   Li  Li1  1  0.250000  0.250000  0.084608  0  .  1
   Li  Li2  1  0.750000  0.750000  0.915392  0  .  1
   Cl  Cl3  1  0.750000  0.750000  0.669638  0  .  1
   Cl  Cl4  1  0.250000  0.250000  0.330362  0  .  1
   Cl  Cl5  1  0.750000  0.250000  0.000000  0  .  1
   Cl  Cl6  1  0.250000  0.750000  0.000000  0  .  1
   Cs  Cs7  1  0.750000  0.750000  0.303809  0  .  1
   Cs  Cs8  1  0.250000  0.250000  0.696191  0  .  1
 
