#\#CIF1.1
##########################################################################
#               Crystallographic Information Format file 
#               Produced by PyCifRW module
# 
#  This is a CIF file.  CIF has been adopted by the International
#  Union of Crystallography as the standard for data archiving and 
#  transmission.
#
#  For information on this file format, follow the CIF links at
#  http://www.iucr.org
##########################################################################

data_Cu(IrS2)2
_symmetry_space_group_name_H-M          'P 1'
_cell_length_a                          7.02614671113
_cell_length_b                          7.02614671673
_cell_length_c                          7.02614671
_cell_angle_alpha                       59.9999999846
_cell_angle_beta                        59.9999999583
_cell_angle_gamma                       59.9999999713
_chemical_name_systematic               'Generated by pymatgen'
_symmetry_Int_Tables_number             1
_chemical_formula_structural            Cu(IrS2)2
_chemical_formula_sum                   'Cu2 Ir4 S8'
_cell_volume                            245.265602238
_cell_formula_units_Z                   2
loop_
  _symmetry_equiv_pos_site_id
  _symmetry_equiv_pos_as_xyz
   1  'x, y, z'
 
loop_
  _atom_site_type_symbol
  _atom_site_label
  _atom_site_symmetry_multiplicity
  _atom_site_fract_x
  _atom_site_fract_y
  _atom_site_fract_z
  _atom_site_attached_hydrogens
  _atom_site_B_iso_or_equiv
  _atom_site_occupancy
   S  S1  1  0.739444  0.739444  0.739444  0  .  1
   S  S2  1  0.260556  0.260556  0.718332  0  .  1
   S  S3  1  0.260556  0.718332  0.260556  0  .  1
   S  S4  1  0.718332  0.260556  0.260556  0  .  1
   S  S5  1  0.739444  0.281668  0.739444  0  .  1
   S  S6  1  0.281668  0.739444  0.739444  0  .  1
   S  S7  1  0.260556  0.260556  0.260556  0  .  1
   S  S8  1  0.739444  0.739444  0.281668  0  .  1
   Cu  Cu9  1  0.875000  0.875000  0.875000  0  .  1
   Cu  Cu10  1  0.125000  0.125000  0.125000  0  .  1
   Ir  Ir11  1  0.500000  0.500000  0.000000  0  .  1
   Ir  Ir12  1  0.500000  0.500000  0.500000  0  .  1
   Ir  Ir13  1  0.000000  0.500000  0.500000  0  .  1
   Ir  Ir14  1  0.500000  0.000000  0.500000  0  .  1
 
