#\#CIF1.1
##########################################################################
#               Crystallographic Information Format file 
#               Produced by PyCifRW module
# 
#  This is a CIF file.  CIF has been adopted by the International
#  Union of Crystallography as the standard for data archiving and 
#  transmission.
#
#  For information on this file format, follow the CIF links at
#  http://www.iucr.org
##########################################################################

data_Cu(PtS2)2
_symmetry_space_group_name_H-M          'P 1'
_cell_length_a                          6.82340369736
_cell_length_b                          6.99459703
_cell_length_c                          10.7531844393
_cell_angle_alpha                       90.0
_cell_angle_beta                        91.7414782092
_cell_angle_gamma                       90.0
_chemical_name_systematic               'Generated by pymatgen'
_symmetry_Int_Tables_number             1
_chemical_formula_structural            Cu(PtS2)2
_chemical_formula_sum                   'Cu4 Pt8 S16'
_cell_volume                            512.979751781
_cell_formula_units_Z                   4
loop_
  _symmetry_equiv_pos_site_id
  _symmetry_equiv_pos_as_xyz
   1  'x, y, z'
 
loop_
  _atom_site_type_symbol
  _atom_site_label
  _atom_site_symmetry_multiplicity
  _atom_site_fract_x
  _atom_site_fract_y
  _atom_site_fract_z
  _atom_site_attached_hydrogens
  _atom_site_B_iso_or_equiv
  _atom_site_occupancy
   S  S1  1  0.751072  -0.000008  0.996454  0  .  1
   S  S2  1  0.748928  -0.000008  0.503546  0  .  1
   S  S3  1  0.248928  1.000008  0.003546  0  .  1
   S  S4  1  0.251072  1.000008  0.496454  0  .  1
   S  S5  1  0.761677  0.500006  0.977868  0  .  1
   S  S6  1  0.738323  0.500006  0.522132  0  .  1
   S  S7  1  0.238323  0.499994  0.022132  0  .  1
   S  S8  1  0.261677  0.499994  0.477868  0  .  1
   S  S9  1  0.993152  0.268543  0.223257  0  .  1
   S  S10  1  0.506848  0.268543  0.276743  0  .  1
   S  S11  1  0.006848  0.731457  0.776743  0  .  1
   S  S12  1  0.493152  0.731457  0.723257  0  .  1
   S  S13  1  0.506814  0.731543  0.276754  0  .  1
   S  S14  1  0.993186  0.731543  0.223246  0  .  1
   S  S15  1  0.493186  0.268457  0.723246  0  .  1
   S  S16  1  0.006814  0.268457  0.776754  0  .  1
   Cu  Cu17  1  0.992039  1.000013  0.348307  0  .  1
   Cu  Cu18  1  0.507961  1.000013  0.151693  0  .  1
   Cu  Cu19  1  0.007961  -0.000013  0.651693  0  .  1
   Cu  Cu20  1  0.492039  -0.000013  0.848307  0  .  1
   Pt  Pt21  1  -0.000014  0.248397  0.000006  0  .  1
   Pt  Pt22  1  0.500014  0.248397  0.499994  0  .  1
   Pt  Pt23  1  1.000014  0.751603  0.999994  0  .  1
   Pt  Pt24  1  0.499986  0.751603  0.500006  0  .  1
   Pt  Pt25  1  0.250000  0.499934  0.750000  0  .  1
   Pt  Pt26  1  0.750000  0.500066  0.250000  0  .  1
   Pt  Pt27  1  0.250000  0.500022  0.250000  0  .  1
   Pt  Pt28  1  0.750000  0.499978  0.750000  0  .  1
 
