#\#CIF1.1
##########################################################################
#               Crystallographic Information Format file 
#               Produced by PyCifRW module
# 
#  This is a CIF file.  CIF has been adopted by the International
#  Union of Crystallography as the standard for data archiving and 
#  transmission.
#
#  For information on this file format, follow the CIF links at
#  http://www.iucr.org
##########################################################################

data_Cu(RhS2)2
_symmetry_space_group_name_H-M          'P 1'
_cell_length_a                          6.98743776215
_cell_length_b                          6.98743776897
_cell_length_c                          6.98743777
_cell_angle_alpha                       60.0000000425
_cell_angle_beta                        60.0000000102
_cell_angle_gamma                       60.0000000117
_chemical_name_systematic               'Generated by pymatgen'
_symmetry_Int_Tables_number             1
_chemical_formula_structural            Cu(RhS2)2
_chemical_formula_sum                   'Cu2 Rh4 S8'
_cell_volume                            241.23419052
_cell_formula_units_Z                   2
loop_
  _symmetry_equiv_pos_site_id
  _symmetry_equiv_pos_as_xyz
   1  'x, y, z'
 
loop_
  _atom_site_type_symbol
  _atom_site_label
  _atom_site_symmetry_multiplicity
  _atom_site_fract_x
  _atom_site_fract_y
  _atom_site_fract_z
  _atom_site_attached_hydrogens
  _atom_site_B_iso_or_equiv
  _atom_site_occupancy
   S  S1  1  0.740712  0.740712  0.740712  0  .  1
   S  S2  1  0.259288  0.259288  0.722135  0  .  1
   S  S3  1  0.259288  0.722135  0.259288  0  .  1
   S  S4  1  0.722135  0.259288  0.259288  0  .  1
   S  S5  1  0.740712  0.277865  0.740712  0  .  1
   S  S6  1  0.277865  0.740712  0.740712  0  .  1
   S  S7  1  0.259288  0.259288  0.259288  0  .  1
   S  S8  1  0.740712  0.740712  0.277865  0  .  1
   Cu  Cu9  1  0.875000  0.875000  0.875000  0  .  1
   Cu  Cu10  1  0.125000  0.125000  0.125000  0  .  1
   Rh  Rh11  1  0.500000  0.500000  0.000000  0  .  1
   Rh  Rh12  1  0.500000  0.500000  0.500000  0  .  1
   Rh  Rh13  1  0.000000  0.500000  0.500000  0  .  1
   Rh  Rh14  1  0.500000  0.000000  0.500000  0  .  1
 
