#\#CIF1.1
##########################################################################
#               Crystallographic Information Format file 
#               Produced by PyCifRW module
# 
#  This is a CIF file.  CIF has been adopted by the International
#  Union of Crystallography as the standard for data archiving and 
#  transmission.
#
#  For information on this file format, follow the CIF links at
#  http://www.iucr.org
##########################################################################

data_CuSe
_symmetry_space_group_name_H-M          'P 1'
_cell_length_a                          3.78135103
_cell_length_b                          3.78135103
_cell_length_c                          5.59456551
_cell_angle_alpha                       90.0
_cell_angle_beta                        90.0
_cell_angle_gamma                       90.0
_chemical_name_systematic               'Generated by pymatgen'
_symmetry_Int_Tables_number             1
_chemical_formula_structural            CuSe
_chemical_formula_sum                   'Cu2 Se2'
_cell_volume                            79.9945417441
_cell_formula_units_Z                   2
loop_
  _symmetry_equiv_pos_site_id
  _symmetry_equiv_pos_as_xyz
   1  'x, y, z'
 
loop_
  _atom_site_type_symbol
  _atom_site_label
  _atom_site_symmetry_multiplicity
  _atom_site_fract_x
  _atom_site_fract_y
  _atom_site_fract_z
  _atom_site_attached_hydrogens
  _atom_site_B_iso_or_equiv
  _atom_site_occupancy
   Cu  Cu1  1  0.000000  0.000000  0.000000  0  .  1
   Cu  Cu2  1  0.500000  0.500000  0.000000  0  .  1
   Se  Se3  1  0.500000  0.000000  0.724623  0  .  1
   Se  Se4  1  0.000000  0.500000  0.275377  0  .  1
 
