#\#CIF1.1
##########################################################################
#               Crystallographic Information Format file 
#               Produced by PyCifRW module
# 
#  This is a CIF file.  CIF has been adopted by the International
#  Union of Crystallography as the standard for data archiving and 
#  transmission.
#
#  For information on this file format, follow the CIF links at
#  http://www.iucr.org
##########################################################################

data_Dy(MnGe)2
_symmetry_space_group_name_H-M          'P 1'
_cell_length_a                          3.939510959
_cell_length_b                          3.93951095642
_cell_length_c                          6.10424629455
_cell_angle_alpha                       108.825447284
_cell_angle_beta                        108.825447315
_cell_angle_gamma                       89.9999999745
_chemical_name_systematic               'Generated by pymatgen'
_symmetry_Int_Tables_number             1
_chemical_formula_structural            Dy(MnGe)2
_chemical_formula_sum                   'Dy1 Mn2 Ge2'
_cell_volume                            84.2965855282
_cell_formula_units_Z                   1
loop_
  _symmetry_equiv_pos_site_id
  _symmetry_equiv_pos_as_xyz
   1  'x, y, z'
 
loop_
  _atom_site_type_symbol
  _atom_site_label
  _atom_site_symmetry_multiplicity
  _atom_site_fract_x
  _atom_site_fract_y
  _atom_site_fract_z
  _atom_site_attached_hydrogens
  _atom_site_B_iso_or_equiv
  _atom_site_occupancy
   Mn  Mn1  1  0.250000  0.750000  0.500000  0  .  1
   Mn  Mn2  1  0.750000  0.250000  0.500000  0  .  1
   Ge  Ge3  1  0.619211  0.619211  0.238423  0  .  1
   Ge  Ge4  1  0.380789  0.380789  0.761577  0  .  1
   Dy  Dy5  1  0.000000  0.000000  0.000000  0  .  1
 
