#\#CIF1.1
##########################################################################
#               Crystallographic Information Format file 
#               Produced by PyCifRW module
# 
#  This is a CIF file.  CIF has been adopted by the International
#  Union of Crystallography as the standard for data archiving and 
#  transmission.
#
#  For information on this file format, follow the CIF links at
#  http://www.iucr.org
##########################################################################

data_ErHCl
_symmetry_space_group_name_H-M          'P 1'
_cell_length_a                          9.5406054904
_cell_length_b                          9.54060549039
_cell_length_c                          9.54060548414
_cell_angle_alpha                       22.488081991
_cell_angle_beta                        22.4880819646
_cell_angle_gamma                       22.4880820243
_chemical_name_systematic               'Generated by pymatgen'
_symmetry_Int_Tables_number             1
_chemical_formula_structural            ErHCl
_chemical_formula_sum                   'Er2 H2 Cl2'
_cell_volume                            111.43939354
_cell_formula_units_Z                   2
loop_
  _symmetry_equiv_pos_site_id
  _symmetry_equiv_pos_as_xyz
   1  'x, y, z'
 
loop_
  _atom_site_type_symbol
  _atom_site_label
  _atom_site_symmetry_multiplicity
  _atom_site_fract_x
  _atom_site_fract_y
  _atom_site_fract_z
  _atom_site_attached_hydrogens
  _atom_site_B_iso_or_equiv
  _atom_site_occupancy
   H  H1  1  0.803447  0.803447  0.803447  0  .  1
   H  H2  1  0.196553  0.196553  0.196553  0  .  1
   Cl  Cl3  1  0.391491  0.391491  0.391491  0  .  1
   Cl  Cl4  1  0.608509  0.608509  0.608509  0  .  1
   Er  Er5  1  0.881400  0.881400  0.881400  0  .  1
   Er  Er6  1  0.118600  0.118600  0.118600  0  .  1
 
