#\#CIF1.1
##########################################################################
#               Crystallographic Information Format file 
#               Produced by PyCifRW module
# 
#  This is a CIF file.  CIF has been adopted by the International
#  Union of Crystallography as the standard for data archiving and 
#  transmission.
#
#  For information on this file format, follow the CIF links at
#  http://www.iucr.org
##########################################################################

data_ErSCl
_symmetry_space_group_name_H-M          'P 1'
_cell_length_a                          3.95810659
_cell_length_b                          5.3312318
_cell_length_c                          8.118062
_cell_angle_alpha                       90.0
_cell_angle_beta                        90.0
_cell_angle_gamma                       90.0
_chemical_name_systematic               'Generated by pymatgen'
_symmetry_Int_Tables_number             1
_chemical_formula_structural            ErSCl
_chemical_formula_sum                   'Er2 S2 Cl2'
_cell_volume                            171.30396494
_cell_formula_units_Z                   2
loop_
  _symmetry_equiv_pos_site_id
  _symmetry_equiv_pos_as_xyz
   1  'x, y, z'
 
loop_
  _atom_site_type_symbol
  _atom_site_label
  _atom_site_symmetry_multiplicity
  _atom_site_fract_x
  _atom_site_fract_y
  _atom_site_fract_z
  _atom_site_attached_hydrogens
  _atom_site_B_iso_or_equiv
  _atom_site_occupancy
   S  S1  1  0.750000  0.250000  0.910408  0  .  1
   S  S2  1  0.250000  0.750000  0.089592  0  .  1
   Cl  Cl3  1  0.250000  0.750000  0.641453  0  .  1
   Cl  Cl4  1  0.750000  0.250000  0.358547  0  .  1
   Er  Er5  1  0.250000  0.250000  0.141666  0  .  1
   Er  Er6  1  0.750000  0.750000  0.858334  0  .  1
 
