#\#CIF1.1
##########################################################################
#               Crystallographic Information Format file 
#               Produced by PyCifRW module
# 
#  This is a CIF file.  CIF has been adopted by the International
#  Union of Crystallography as the standard for data archiving and 
#  transmission.
#
#  For information on this file format, follow the CIF links at
#  http://www.iucr.org
##########################################################################

data_ErSeI
_symmetry_space_group_name_H-M          'P 1'
_cell_length_a                          4.20281371
_cell_length_b                          5.61327995
_cell_length_c                          9.81979822
_cell_angle_alpha                       90.0
_cell_angle_beta                        90.0
_cell_angle_gamma                       90.0
_chemical_name_systematic               'Generated by pymatgen'
_symmetry_Int_Tables_number             1
_chemical_formula_structural            ErSeI
_chemical_formula_sum                   'Er2 Se2 I2'
_cell_volume                            231.664456425
_cell_formula_units_Z                   2
loop_
  _symmetry_equiv_pos_site_id
  _symmetry_equiv_pos_as_xyz
   1  'x, y, z'
 
loop_
  _atom_site_type_symbol
  _atom_site_label
  _atom_site_symmetry_multiplicity
  _atom_site_fract_x
  _atom_site_fract_y
  _atom_site_fract_z
  _atom_site_attached_hydrogens
  _atom_site_B_iso_or_equiv
  _atom_site_occupancy
   Se  Se1  1  0.750000  0.750000  0.920745  0  .  1
   Se  Se2  1  0.250000  0.250000  0.079255  0  .  1
   I  I3  1  0.250000  0.250000  0.661441  0  .  1
   I  I4  1  0.750000  0.750000  0.338559  0  .  1
   Er  Er5  1  0.750000  0.250000  0.883647  0  .  1
   Er  Er6  1  0.250000  0.750000  0.116353  0  .  1
 
