#\#CIF1.1
##########################################################################
#               Crystallographic Information Format file 
#               Produced by PyCifRW module
# 
#  This is a CIF file.  CIF has been adopted by the International
#  Union of Crystallography as the standard for data archiving and 
#  transmission.
#
#  For information on this file format, follow the CIF links at
#  http://www.iucr.org
##########################################################################

data_Eu(GeRu)2
_symmetry_space_group_name_H-M          'P 1'
_cell_length_a                          4.30216071892
_cell_length_b                          4.3021607181
_cell_length_c                          5.94977446858
_cell_angle_alpha                       111.194791402
_cell_angle_beta                        111.194791409
_cell_angle_gamma                       90.0000000014
_chemical_name_systematic               'Generated by pymatgen'
_symmetry_Int_Tables_number             1
_chemical_formula_structural            Eu(GeRu)2
_chemical_formula_sum                   'Eu1 Ge2 Ru2'
_cell_volume                            94.6393887753
_cell_formula_units_Z                   1
loop_
  _symmetry_equiv_pos_site_id
  _symmetry_equiv_pos_as_xyz
   1  'x, y, z'
 
loop_
  _atom_site_type_symbol
  _atom_site_label
  _atom_site_symmetry_multiplicity
  _atom_site_fract_x
  _atom_site_fract_y
  _atom_site_fract_z
  _atom_site_attached_hydrogens
  _atom_site_B_iso_or_equiv
  _atom_site_occupancy
   Ge  Ge1  1  0.634669  0.634669  0.269339  0  .  1
   Ge  Ge2  1  0.365331  0.365331  0.730661  0  .  1
   Ru  Ru3  1  0.750000  0.250000  0.500000  0  .  1
   Ru  Ru4  1  0.250000  0.750000  0.500000  0  .  1
   Eu  Eu5  1  0.000000  0.000000  0.000000  0  .  1
 
