#\#CIF1.1
##########################################################################
#               Crystallographic Information Format file 
#               Produced by PyCifRW module
# 
#  This is a CIF file.  CIF has been adopted by the International
#  Union of Crystallography as the standard for data archiving and 
#  transmission.
#
#  For information on this file format, follow the CIF links at
#  http://www.iucr.org
##########################################################################

data_EuGa4
_symmetry_space_group_name_H-M          'P 1'
_cell_length_a                          4.45742851375
_cell_length_b                          4.45742851083
_cell_length_c                          6.21591693916
_cell_angle_alpha                       111.011145949
_cell_angle_beta                        111.011145916
_cell_angle_gamma                       90.0000000075
_chemical_name_systematic               'Generated by pymatgen'
_symmetry_Int_Tables_number             1
_chemical_formula_structural            EuGa4
_chemical_formula_sum                   'Eu1 Ga4'
_cell_volume                            106.44728891
_cell_formula_units_Z                   1
loop_
  _symmetry_equiv_pos_site_id
  _symmetry_equiv_pos_as_xyz
   1  'x, y, z'
 
loop_
  _atom_site_type_symbol
  _atom_site_label
  _atom_site_symmetry_multiplicity
  _atom_site_fract_x
  _atom_site_fract_y
  _atom_site_fract_z
  _atom_site_attached_hydrogens
  _atom_site_B_iso_or_equiv
  _atom_site_occupancy
   Ga  Ga1  1  0.617088  0.617088  0.234177  0  .  1
   Ga  Ga2  1  0.250000  0.750000  0.500000  0  .  1
   Ga  Ga3  1  0.750000  0.250000  0.500000  0  .  1
   Ga  Ga4  1  0.382912  0.382912  0.765823  0  .  1
   Eu  Eu5  1  0.000000  0.000000  0.000000  0  .  1
 
