#\#CIF1.1
##########################################################################
#               Crystallographic Information Format file 
#               Produced by PyCifRW module
# 
#  This is a CIF file.  CIF has been adopted by the International
#  Union of Crystallography as the standard for data archiving and 
#  transmission.
#
#  For information on this file format, follow the CIF links at
#  http://www.iucr.org
##########################################################################

data_Fe2RhS4
_symmetry_space_group_name_H-M          'P 1'
_cell_length_a                          6.77581451458
_cell_length_b                          6.66647560827
_cell_length_c                          6.77581451818
_cell_angle_alpha                       60.5323731259
_cell_angle_beta                        60.8392308517
_cell_angle_gamma                       60.5323757743
_chemical_name_systematic               'Generated by pymatgen'
_symmetry_Int_Tables_number             1
_chemical_formula_structural            Fe2RhS4
_chemical_formula_sum                   'Fe4 Rh2 S8'
_cell_volume                            219.520794643
_cell_formula_units_Z                   2
loop_
  _symmetry_equiv_pos_site_id
  _symmetry_equiv_pos_as_xyz
   1  'x, y, z'
 
loop_
  _atom_site_type_symbol
  _atom_site_label
  _atom_site_symmetry_multiplicity
  _atom_site_fract_x
  _atom_site_fract_y
  _atom_site_fract_z
  _atom_site_attached_hydrogens
  _atom_site_B_iso_or_equiv
  _atom_site_occupancy
   Fe  Fe1  1  0.000861  0.999139  0.000861  0  .  1
   Fe  Fe2  1  0.249139  0.250861  0.249139  0  .  1
   Fe  Fe3  1  0.625000  0.125000  0.625000  0  .  1
   Fe  Fe4  1  0.625000  0.625000  0.625000  0  .  1
   Rh  Rh5  1  0.125000  0.625000  0.625000  0  .  1
   Rh  Rh6  1  0.625000  0.625000  0.125000  0  .  1
   S  S7  1  0.388589  0.366995  0.388589  0  .  1
   S  S8  1  0.393118  0.376944  0.852994  0  .  1
   S  S9  1  0.388589  0.855827  0.388589  0  .  1
   S  S10  1  0.852994  0.376944  0.393118  0  .  1
   S  S11  1  0.397006  0.873056  0.856882  0  .  1
   S  S12  1  0.856882  0.873056  0.397006  0  .  1
   S  S13  1  0.861411  0.394173  0.861411  0  .  1
   S  S14  1  0.861411  0.883005  0.861411  0  .  1
 
