#\#CIF1.1
##########################################################################
#               Crystallographic Information Format file 
#               Produced by PyCifRW module
# 
#  This is a CIF file.  CIF has been adopted by the International
#  Union of Crystallography as the standard for data archiving and 
#  transmission.
#
#  For information on this file format, follow the CIF links at
#  http://www.iucr.org
##########################################################################

data_Fe2S
_symmetry_space_group_name_H-M          'P 1'
_cell_length_a                          3.00335124392
_cell_length_b                          21.3503744327
_cell_length_c                          5.11390204096
_cell_angle_alpha                       122.241096584
_cell_angle_beta                        72.9236514523
_cell_angle_gamma                       89.9999999636
_chemical_name_systematic               'Generated by pymatgen'
_symmetry_Int_Tables_number             1
_chemical_formula_structural            Fe2S
_chemical_formula_sum                   'Fe14 S7'
_cell_volume                            260.104177818
_cell_formula_units_Z                   7
loop_
  _symmetry_equiv_pos_site_id
  _symmetry_equiv_pos_as_xyz
   1  'x, y, z'
 
loop_
  _atom_site_type_symbol
  _atom_site_label
  _atom_site_symmetry_multiplicity
  _atom_site_fract_x
  _atom_site_fract_y
  _atom_site_fract_z
  _atom_site_attached_hydrogens
  _atom_site_B_iso_or_equiv
  _atom_site_occupancy
   Fe  Fe1  1  0.683648  0.851463  0.632706  0  .  1
   Fe  Fe2  1  0.761762  0.945081  0.476476  0  .  1
   Fe  Fe3  1  0.339030  0.618898  0.321938  0  .  1
   Fe  Fe4  1  0.362007  0.743191  0.275985  0  .  1
   Fe  Fe5  1  0.091049  0.588218  0.817903  0  .  1
   Fe  Fe6  1  0.640266  0.750655  0.719469  0  .  1
   Fe  Fe7  1  0.818124  0.446678  0.363752  0  .  1
   Fe  Fe8  1  0.052330  0.478054  0.895340  0  .  1
   Fe  Fe9  1  0.526021  0.305420  0.947959  0  .  1
   Fe  Fe10  1  0.790665  0.329205  0.418670  0  .  1
   Fe  Fe11  1  0.251097  0.161100  0.497806  0  .  1
   Fe  Fe12  1  0.507403  0.188016  0.985193  0  .  1
   Fe  Fe13  1  0.982708  0.012523  0.034585  0  .  1
   Fe  Fe14  1  0.205469  0.059037  0.589062  0  .  1
   S  S15  1  0.429584  0.943647  0.140832  0  .  1
   S  S16  1  0.940852  0.815126  0.118294  0  .  1
   S  S17  1  0.628263  0.651747  0.743474  0  .  1
   S  S18  1  0.358197  0.509251  0.283606  0  .  1
   S  S19  1  0.088092  0.365989  0.823818  0  .  1
   S  S20  1  0.802206  0.221157  0.395586  0  .  1
   S  S21  1  0.526942  0.075067  0.946116  0  .  1
 
