#\#CIF1.1
##########################################################################
#               Crystallographic Information Format file 
#               Produced by PyCifRW module
# 
#  This is a CIF file.  CIF has been adopted by the International
#  Union of Crystallography as the standard for data archiving and 
#  transmission.
#
#  For information on this file format, follow the CIF links at
#  http://www.iucr.org
##########################################################################

data_Fe3S4
_symmetry_space_group_name_H-M          'P 1'
_cell_length_a                          12.7195524531
_cell_length_b                          12.7195524988
_cell_length_c                          12.7195522613
_cell_angle_alpha                       13.9126358444
_cell_angle_beta                        13.9126353261
_cell_angle_gamma                       13.9126351501
_chemical_name_systematic               'Generated by pymatgen'
_symmetry_Int_Tables_number             1
_chemical_formula_structural            Fe3S4
_chemical_formula_sum                   'Fe3 S4'
_cell_volume                            103.537035679
_cell_formula_units_Z                   1
loop_
  _symmetry_equiv_pos_site_id
  _symmetry_equiv_pos_as_xyz
   1  'x, y, z'
 
loop_
  _atom_site_type_symbol
  _atom_site_label
  _atom_site_symmetry_multiplicity
  _atom_site_fract_x
  _atom_site_fract_y
  _atom_site_fract_z
  _atom_site_attached_hydrogens
  _atom_site_B_iso_or_equiv
  _atom_site_occupancy
   Fe  Fe1  1  0.459571  0.459571  0.459571  0  .  1
   Fe  Fe2  1  0.702350  0.702350  0.702350  0  .  1
   Fe  Fe3  1  0.883797  0.883797  0.883797  0  .  1
   S  S4  1  0.002210  0.002210  0.002210  0  .  1
   S  S5  1  0.084837  0.084837  0.084837  0  .  1
   S  S6  1  0.167591  0.167591  0.167591  0  .  1
   S  S7  1  0.249643  0.249643  0.249643  0  .  1
 
