#\#CIF1.1
##########################################################################
#               Crystallographic Information Format file 
#               Produced by PyCifRW module
# 
#  This is a CIF file.  CIF has been adopted by the International
#  Union of Crystallography as the standard for data archiving and 
#  transmission.
#
#  For information on this file format, follow the CIF links at
#  http://www.iucr.org
##########################################################################

data_Fe7S12
_symmetry_space_group_name_H-M          'P 1'
_cell_length_a                          5.4006762623
_cell_length_b                          5.40380708
_cell_length_c                          37.8089386601
_cell_angle_alpha                       90.0
_cell_angle_beta                        87.5848813043
_cell_angle_gamma                       90.0
_chemical_name_systematic               'Generated by pymatgen'
_symmetry_Int_Tables_number             1
_chemical_formula_structural            Fe7S12
_chemical_formula_sum                   'Fe28 S48'
_cell_volume                            1102.44398353
_cell_formula_units_Z                   4
loop_
  _symmetry_equiv_pos_site_id
  _symmetry_equiv_pos_as_xyz
   1  'x, y, z'
 
loop_
  _atom_site_type_symbol
  _atom_site_label
  _atom_site_symmetry_multiplicity
  _atom_site_fract_x
  _atom_site_fract_y
  _atom_site_fract_z
  _atom_site_attached_hydrogens
  _atom_site_B_iso_or_equiv
  _atom_site_occupancy
   Fe  Fe1  1  0.993233  0.014642  0.995293  0  .  1
   Fe  Fe2  1  0.987821  0.030691  0.428959  0  .  1
   Fe  Fe3  1  0.993487  0.012463  0.852692  0  .  1
   Fe  Fe4  1  0.491618  0.507940  0.000937  0  .  1
   Fe  Fe5  1  0.533940  0.494968  0.287757  0  .  1
   Fe  Fe6  1  0.495564  0.993566  0.215325  0  .  1
   Fe  Fe7  1  0.531461  0.499030  0.145274  0  .  1
   Fe  Fe8  1  0.524573  0.000819  0.073717  0  .  1
   Fe  Fe9  1  0.533985  0.494761  0.430553  0  .  1
   Fe  Fe10  1  0.493436  0.993833  0.358071  0  .  1
   Fe  Fe11  1  0.491618  0.992060  0.500937  0  .  1
   Fe  Fe12  1  0.493436  0.506167  0.858071  0  .  1
   Fe  Fe13  1  0.524573  0.499181  0.573717  0  .  1
   Fe  Fe14  1  0.531461  0.000970  0.645274  0  .  1
   Fe  Fe15  1  0.495564  0.506434  0.715325  0  .  1
   Fe  Fe16  1  0.533940  0.005032  0.787757  0  .  1
   Fe  Fe17  1  0.533985  0.005239  0.930553  0  .  1
   Fe  Fe18  1  0.965593  0.434664  0.069411  0  .  1
   Fe  Fe19  1  0.998437  0.034234  0.142132  0  .  1
   Fe  Fe20  1  0.992963  0.485534  0.209867  0  .  1
   Fe  Fe21  1  0.993487  0.487537  0.352692  0  .  1
   Fe  Fe22  1  0.993233  0.485358  0.495293  0  .  1
   Fe  Fe23  1  0.987702  0.030862  0.286081  0  .  1
   Fe  Fe24  1  0.965593  0.065336  0.569411  0  .  1
   Fe  Fe25  1  0.998437  0.465766  0.642132  0  .  1
   Fe  Fe26  1  0.987702  0.469138  0.786081  0  .  1
   Fe  Fe27  1  0.987821  0.469309  0.928959  0  .  1
   Fe  Fe28  1  0.992963  0.014466  0.709867  0  .  1
   S  S29  1  0.117745  0.872306  0.197804  0  .  1
   S  S30  1  0.114832  0.875510  0.340781  0  .  1
   S  S31  1  0.115831  0.872718  0.483465  0  .  1
   S  S32  1  0.117745  0.627694  0.697804  0  .  1
   S  S33  1  0.114832  0.624490  0.840781  0  .  1
   S  S34  1  0.115831  0.627282  0.983465  0  .  1
   S  S35  1  0.360300  0.381625  0.055669  0  .  1
   S  S36  1  0.384815  0.372855  0.198493  0  .  1
   S  S37  1  0.385905  0.373224  0.341053  0  .  1
   S  S38  1  0.393027  0.373847  0.626833  0  .  1
   S  S39  1  0.386037  0.371119  0.483864  0  .  1
   S  S40  1  0.376554  0.385642  0.769594  0  .  1
   S  S41  1  0.376549  0.385451  0.912401  0  .  1
   S  S42  1  0.376554  0.114358  0.269594  0  .  1
   S  S43  1  0.393027  0.126153  0.126833  0  .  1
   S  S44  1  0.376549  0.114549  0.412401  0  .  1
   S  S45  1  0.360300  0.118375  0.555669  0  .  1
   S  S46  1  0.385905  0.126776  0.841053  0  .  1
   S  S47  1  0.384815  0.127145  0.698493  0  .  1
   S  S48  1  0.386037  0.128881  0.983864  0  .  1
   S  S49  1  0.605090  0.615927  0.089725  0  .  1
   S  S50  1  0.611213  0.615186  0.231968  0  .  1
   S  S51  1  0.621153  0.612419  0.660863  0  .  1
   S  S52  1  0.609375  0.614494  0.517937  0  .  1
   S  S53  1  0.610332  0.615665  0.374691  0  .  1
   S  S54  1  0.615427  0.615673  0.803383  0  .  1
   S  S55  1  0.615933  0.616456  0.946375  0  .  1
   S  S56  1  0.609375  0.885506  0.017937  0  .  1
   S  S57  1  0.621153  0.887581  0.160863  0  .  1
   S  S58  1  0.615933  0.883544  0.446375  0  .  1
   S  S59  1  0.605090  0.884073  0.589725  0  .  1
   S  S60  1  0.615427  0.884327  0.303383  0  .  1
   S  S61  1  0.611213  0.884814  0.731968  0  .  1
   S  S62  1  0.610332  0.884335  0.874691  0  .  1
   S  S63  1  0.901433  0.066519  0.086711  0  .  1
   S  S64  1  0.867517  0.380628  0.015654  0  .  1
   S  S65  1  0.901000  0.400845  0.156776  0  .  1
   S  S66  1  0.874399  0.113527  0.230402  0  .  1
   S  S67  1  0.873331  0.114622  0.373397  0  .  1
   S  S68  1  0.867517  0.119372  0.515654  0  .  1
   S  S69  1  0.902437  0.401574  0.442524  0  .  1
   S  S70  1  0.902352  0.401730  0.299799  0  .  1
   S  S71  1  0.901000  0.099155  0.656776  0  .  1
   S  S72  1  0.902352  0.098270  0.799799  0  .  1
   S  S73  1  0.902437  0.098426  0.942524  0  .  1
   S  S74  1  0.874399  0.386473  0.730402  0  .  1
   S  S75  1  0.873331  0.385378  0.873397  0  .  1
   S  S76  1  0.901433  0.433481  0.586711  0  .  1
 
