#\#CIF1.1
##########################################################################
#               Crystallographic Information Format file 
#               Produced by PyCifRW module
# 
#  This is a CIF file.  CIF has been adopted by the International
#  Union of Crystallography as the standard for data archiving and 
#  transmission.
#
#  For information on this file format, follow the CIF links at
#  http://www.iucr.org
##########################################################################

data_FeAgS2
_symmetry_space_group_name_H-M          'P 1'
_cell_length_a                          5.62020460513
_cell_length_b                          5.62020459973
_cell_length_c                          6.49841188285
_cell_angle_alpha                       115.621815087
_cell_angle_beta                        115.621815017
_cell_angle_gamma                       90.0000000038
_chemical_name_systematic               'Generated by pymatgen'
_symmetry_Int_Tables_number             1
_chemical_formula_structural            FeAgS2
_chemical_formula_sum                   'Fe2 Ag2 S4'
_cell_volume                            162.40604193
_cell_formula_units_Z                   2
loop_
  _symmetry_equiv_pos_site_id
  _symmetry_equiv_pos_as_xyz
   1  'x, y, z'
 
loop_
  _atom_site_type_symbol
  _atom_site_label
  _atom_site_symmetry_multiplicity
  _atom_site_fract_x
  _atom_site_fract_y
  _atom_site_fract_z
  _atom_site_attached_hydrogens
  _atom_site_B_iso_or_equiv
  _atom_site_occupancy
   S  S1  1  0.822954  0.875000  0.250000  0  .  1
   S  S2  1  0.625000  0.177046  0.750000  0  .  1
   S  S3  1  0.427046  0.375000  0.250000  0  .  1
   S  S4  1  0.125000  0.572954  0.750000  0  .  1
   Fe  Fe5  1  0.500000  0.500000  0.000000  0  .  1
   Fe  Fe6  1  0.750000  0.250000  0.500000  0  .  1
   Ag  Ag7  1  0.250000  0.750000  0.500000  0  .  1
   Ag  Ag8  1  0.000000  0.000000  0.000000  0  .  1
 
