#\#CIF1.1
##########################################################################
#               Crystallographic Information Format file 
#               Produced by PyCifRW module
# 
#  This is a CIF file.  CIF has been adopted by the International
#  Union of Crystallography as the standard for data archiving and 
#  transmission.
#
#  For information on this file format, follow the CIF links at
#  http://www.iucr.org
##########################################################################

data_FeBr3
_symmetry_space_group_name_H-M          'P 1'
_cell_length_a                          7.42415730172
_cell_length_b                          7.42415730925
_cell_length_c                          7.42415730096
_cell_angle_alpha                       50.2864446644
_cell_angle_beta                        50.2864446637
_cell_angle_gamma                       50.286444651
_chemical_name_systematic               'Generated by pymatgen'
_symmetry_Int_Tables_number             1
_chemical_formula_structural            FeBr3
_chemical_formula_sum                   'Fe2 Br6'
_cell_volume                            222.985357664
_cell_formula_units_Z                   2
loop_
  _symmetry_equiv_pos_site_id
  _symmetry_equiv_pos_as_xyz
   1  'x, y, z'
 
loop_
  _atom_site_type_symbol
  _atom_site_label
  _atom_site_symmetry_multiplicity
  _atom_site_fract_x
  _atom_site_fract_y
  _atom_site_fract_z
  _atom_site_attached_hydrogens
  _atom_site_B_iso_or_equiv
  _atom_site_occupancy
   Fe  Fe1  1  0.333277  0.333277  0.333277  0  .  1
   Fe  Fe2  1  0.666723  0.666723  0.666723  0  .  1
   Br  Br3  1  0.698703  0.443491  0.070551  0  .  1
   Br  Br4  1  0.070551  0.698703  0.443491  0  .  1
   Br  Br5  1  0.443491  0.070551  0.698703  0  .  1
   Br  Br6  1  0.301297  0.556509  0.929449  0  .  1
   Br  Br7  1  0.929449  0.301297  0.556509  0  .  1
   Br  Br8  1  0.556509  0.929449  0.301297  0  .  1
 
