#\#CIF1.1
##########################################################################
#               Crystallographic Information Format file 
#               Produced by PyCifRW module
# 
#  This is a CIF file.  CIF has been adopted by the International
#  Union of Crystallography as the standard for data archiving and 
#  transmission.
#
#  For information on this file format, follow the CIF links at
#  http://www.iucr.org
##########################################################################

data_GaGeTe
_symmetry_space_group_name_H-M          'P 1'
_cell_length_a                          12.4173986204
_cell_length_b                          12.4173986198
_cell_length_c                          12.4173986201
_cell_angle_alpha                       19.1285787686
_cell_angle_beta                        19.1285787641
_cell_angle_gamma                       19.1285787629
_chemical_name_systematic               'Generated by pymatgen'
_symmetry_Int_Tables_number             1
_chemical_formula_structural            GaGeTe
_chemical_formula_sum                   'Ga2 Ge2 Te2'
_cell_volume                            179.705379104
_cell_formula_units_Z                   2
loop_
  _symmetry_equiv_pos_site_id
  _symmetry_equiv_pos_as_xyz
   1  'x, y, z'
 
loop_
  _atom_site_type_symbol
  _atom_site_label
  _atom_site_symmetry_multiplicity
  _atom_site_fract_x
  _atom_site_fract_y
  _atom_site_fract_z
  _atom_site_attached_hydrogens
  _atom_site_B_iso_or_equiv
  _atom_site_occupancy
   Ga  Ga1  1  0.254719  0.254719  0.254719  0  .  1
   Ga  Ga2  1  0.745281  0.745281  0.745281  0  .  1
   Ge  Ge3  1  0.322345  0.322345  0.322345  0  .  1
   Ge  Ge4  1  0.677655  0.677655  0.677655  0  .  1
   Te  Te5  1  0.113363  0.113363  0.113363  0  .  1
   Te  Te6  1  0.886637  0.886637  0.886637  0  .  1
 
