#\#CIF1.1
##########################################################################
#               Crystallographic Information Format file 
#               Produced by PyCifRW module
# 
#  This is a CIF file.  CIF has been adopted by the International
#  Union of Crystallography as the standard for data archiving and 
#  transmission.
#
#  For information on this file format, follow the CIF links at
#  http://www.iucr.org
##########################################################################

data_Gd(CoB)2
_symmetry_space_group_name_H-M          'P 1'
_cell_length_a                          3.56221778904
_cell_length_b                          3.55753381881
_cell_length_c                          5.40307764367
_cell_angle_alpha                       109.265204407
_cell_angle_beta                        109.17535748
_cell_angle_gamma                       89.9919448622
_chemical_name_systematic               'Generated by pymatgen'
_symmetry_Int_Tables_number             1
_chemical_formula_structural            Gd(CoB)2
_chemical_formula_sum                   'Gd1 Co2 B2'
_cell_volume                            60.599643422
_cell_formula_units_Z                   1
loop_
  _symmetry_equiv_pos_site_id
  _symmetry_equiv_pos_as_xyz
   1  'x, y, z'
 
loop_
  _atom_site_type_symbol
  _atom_site_label
  _atom_site_symmetry_multiplicity
  _atom_site_fract_x
  _atom_site_fract_y
  _atom_site_fract_z
  _atom_site_attached_hydrogens
  _atom_site_B_iso_or_equiv
  _atom_site_occupancy
   Gd  Gd1  1  0.004437  0.993979  0.999546  0  .  1
   Co  Co2  1  0.254246  0.742270  0.498915  0  .  1
   Co  Co3  1  0.754209  0.242365  0.499512  0  .  1
   B  B4  1  0.348965  0.337120  0.688604  0  .  1
   B  B5  1  0.659894  0.648253  0.310633  0  .  1
 
