#\#CIF1.1
##########################################################################
#               Crystallographic Information Format file 
#               Produced by PyCifRW module
# 
#  This is a CIF file.  CIF has been adopted by the International
#  Union of Crystallography as the standard for data archiving and 
#  transmission.
#
#  For information on this file format, follow the CIF links at
#  http://www.iucr.org
##########################################################################

data_Gd(GeRh)2
_symmetry_space_group_name_H-M          'P 1'
_cell_length_a                          4.15716268412
_cell_length_b                          4.15716268397
_cell_length_c                          5.99721154069
_cell_angle_alpha                       110.278964822
_cell_angle_beta                        110.278964855
_cell_angle_gamma                       90.0000000983
_chemical_name_systematic               'Generated by pymatgen'
_symmetry_Int_Tables_number             1
_chemical_formula_structural            Gd(GeRh)2
_chemical_formula_sum                   'Gd1 Ge2 Rh2'
_cell_volume                            90.3396619225
_cell_formula_units_Z                   1
loop_
  _symmetry_equiv_pos_site_id
  _symmetry_equiv_pos_as_xyz
   1  'x, y, z'
 
loop_
  _atom_site_type_symbol
  _atom_site_label
  _atom_site_symmetry_multiplicity
  _atom_site_fract_x
  _atom_site_fract_y
  _atom_site_fract_z
  _atom_site_attached_hydrogens
  _atom_site_B_iso_or_equiv
  _atom_site_occupancy
   Ge  Ge1  1  0.622366  0.622366  0.244731  0  .  1
   Ge  Ge2  1  0.377634  0.377634  0.755269  0  .  1
   Rh  Rh3  1  0.250000  0.750000  0.500000  0  .  1
   Rh  Rh4  1  0.750000  0.250000  0.500000  0  .  1
   Gd  Gd5  1  0.000000  0.000000  0.000000  0  .  1
 
