#\#CIF1.1
##########################################################################
#               Crystallographic Information Format file 
#               Produced by PyCifRW module
# 
#  This is a CIF file.  CIF has been adopted by the International
#  Union of Crystallography as the standard for data archiving and 
#  transmission.
#
#  For information on this file format, follow the CIF links at
#  http://www.iucr.org
##########################################################################

data_GdSI
_symmetry_space_group_name_H-M          'P 1'
_cell_length_a                          4.26255669
_cell_length_b                          5.39456329
_cell_length_c                          9.58914072
_cell_angle_alpha                       90.0
_cell_angle_beta                        90.0
_cell_angle_gamma                       90.0
_chemical_name_systematic               'Generated by pymatgen'
_symmetry_Int_Tables_number             1
_chemical_formula_structural            GdSI
_chemical_formula_sum                   'Gd2 S2 I2'
_cell_volume                            220.498760532
_cell_formula_units_Z                   2
loop_
  _symmetry_equiv_pos_site_id
  _symmetry_equiv_pos_as_xyz
   1  'x, y, z'
 
loop_
  _atom_site_type_symbol
  _atom_site_label
  _atom_site_symmetry_multiplicity
  _atom_site_fract_x
  _atom_site_fract_y
  _atom_site_fract_z
  _atom_site_attached_hydrogens
  _atom_site_B_iso_or_equiv
  _atom_site_occupancy
   Gd  Gd1  1  0.750000  0.750000  0.877950  0  .  1
   Gd  Gd2  1  0.250000  0.250000  0.122050  0  .  1
   S  S3  1  0.750000  0.250000  0.936933  0  .  1
   S  S4  1  0.250000  0.750000  0.063067  0  .  1
   I  I5  1  0.250000  0.750000  0.644954  0  .  1
   I  I6  1  0.750000  0.250000  0.355046  0  .  1
 
