#\#CIF1.1
##########################################################################
#               Crystallographic Information Format file 
#               Produced by PyCifRW module
# 
#  This is a CIF file.  CIF has been adopted by the International
#  Union of Crystallography as the standard for data archiving and 
#  transmission.
#
#  For information on this file format, follow the CIF links at
#  http://www.iucr.org
##########################################################################

data_GeI2
_symmetry_space_group_name_H-M          'P 1'
_cell_length_a                          4.29526368
_cell_length_b                          4.29526374683
_cell_length_c                          22.14196015
_cell_angle_alpha                       90.0
_cell_angle_beta                        90.0
_cell_angle_gamma                       119.999999485
_chemical_name_systematic               'Generated by pymatgen'
_symmetry_Int_Tables_number             1
_chemical_formula_structural            GeI2
_chemical_formula_sum                   'Ge3 I6'
_cell_volume                            353.774368903
_cell_formula_units_Z                   3
loop_
  _symmetry_equiv_pos_site_id
  _symmetry_equiv_pos_as_xyz
   1  'x, y, z'
 
loop_
  _atom_site_type_symbol
  _atom_site_label
  _atom_site_symmetry_multiplicity
  _atom_site_fract_x
  _atom_site_fract_y
  _atom_site_fract_z
  _atom_site_attached_hydrogens
  _atom_site_B_iso_or_equiv
  _atom_site_occupancy
   Ge  Ge1  1  0.000000  0.000000  0.000000  0  .  1
   Ge  Ge2  1  0.333333  0.666667  0.331226  0  .  1
   Ge  Ge3  1  0.666667  0.333333  0.668774  0  .  1
   I  I4  1  0.000000  0.000000  0.252120  0  .  1
   I  I5  1  0.000000  0.000000  0.747880  0  .  1
   I  I6  1  0.333333  0.666667  0.079394  0  .  1
   I  I7  1  0.666667  0.333333  0.920606  0  .  1
   I  I8  1  0.333333  0.666667  0.589572  0  .  1
   I  I9  1  0.666667  0.333333  0.410428  0  .  1
 
