#\#CIF1.1
##########################################################################
#               Crystallographic Information Format file 
#               Produced by PyCifRW module
# 
#  This is a CIF file.  CIF has been adopted by the International
#  Union of Crystallography as the standard for data archiving and 
#  transmission.
#
#  For information on this file format, follow the CIF links at
#  http://www.iucr.org
##########################################################################

data_HfBrN
_symmetry_space_group_name_H-M          'P 1'
_cell_length_a                          3.58202587
_cell_length_b                          4.12194733
_cell_length_c                          9.05320926
_cell_angle_alpha                       90.0
_cell_angle_beta                        90.0
_cell_angle_gamma                       90.0
_chemical_name_systematic               'Generated by pymatgen'
_symmetry_Int_Tables_number             1
_chemical_formula_structural            HfBrN
_chemical_formula_sum                   'Hf2 Br2 N2'
_cell_volume                            133.66992831
_cell_formula_units_Z                   2
loop_
  _symmetry_equiv_pos_site_id
  _symmetry_equiv_pos_as_xyz
   1  'x, y, z'
 
loop_
  _atom_site_type_symbol
  _atom_site_label
  _atom_site_symmetry_multiplicity
  _atom_site_fract_x
  _atom_site_fract_y
  _atom_site_fract_z
  _atom_site_attached_hydrogens
  _atom_site_B_iso_or_equiv
  _atom_site_occupancy
   Hf  Hf1  1  0.750000  0.250000  0.095390  0  .  1
   Hf  Hf2  1  0.250000  0.750000  0.904610  0  .  1
   Br  Br3  1  0.750000  0.750000  0.673443  0  .  1
   Br  Br4  1  0.250000  0.250000  0.326557  0  .  1
   N  N5  1  0.750000  0.750000  0.032705  0  .  1
   N  N6  1  0.250000  0.250000  0.967295  0  .  1
 
