#\#CIF1.1
##########################################################################
#               Crystallographic Information Format file 
#               Produced by PyCifRW module
# 
#  This is a CIF file.  CIF has been adopted by the International
#  Union of Crystallography as the standard for data archiving and 
#  transmission.
#
#  For information on this file format, follow the CIF links at
#  http://www.iucr.org
##########################################################################

data_InClO
_symmetry_space_group_name_H-M          'P 1'
_cell_length_a                          3.57798377
_cell_length_b                          4.15798326
_cell_length_c                          8.66275323
_cell_angle_alpha                       90.0
_cell_angle_beta                        90.0
_cell_angle_gamma                       90.0
_chemical_name_systematic               'Generated by pymatgen'
_symmetry_Int_Tables_number             1
_chemical_formula_structural            InClO
_chemical_formula_sum                   'In2 Cl2 O2'
_cell_volume                            128.877483075
_cell_formula_units_Z                   2
loop_
  _symmetry_equiv_pos_site_id
  _symmetry_equiv_pos_as_xyz
   1  'x, y, z'
 
loop_
  _atom_site_type_symbol
  _atom_site_label
  _atom_site_symmetry_multiplicity
  _atom_site_fract_x
  _atom_site_fract_y
  _atom_site_fract_z
  _atom_site_attached_hydrogens
  _atom_site_B_iso_or_equiv
  _atom_site_occupancy
   O  O1  1  0.750000  0.250000  0.957289  0  .  1
   O  O2  1  0.250000  0.750000  0.042711  0  .  1
   Cl  Cl3  1  0.250000  0.750000  0.673112  0  .  1
   Cl  Cl4  1  0.750000  0.250000  0.326888  0  .  1
   In  In5  1  0.250000  0.250000  0.116477  0  .  1
   In  In6  1  0.750000  0.750000  0.883523  0  .  1
 
