#\#CIF1.1
##########################################################################
#               Crystallographic Information Format file 
#               Produced by PyCifRW module
# 
#  This is a CIF file.  CIF has been adopted by the International
#  Union of Crystallography as the standard for data archiving and 
#  transmission.
#
#  For information on this file format, follow the CIF links at
#  http://www.iucr.org
##########################################################################

data_K(CoS)2
_symmetry_space_group_name_H-M          'P 1'
_cell_length_a                          3.74477953467
_cell_length_b                          3.74477953639
_cell_length_c                          6.88948272758
_cell_angle_alpha                       105.769922226
_cell_angle_beta                        105.769922223
_cell_angle_gamma                       89.9999999023
_chemical_name_systematic               'Generated by pymatgen'
_symmetry_Int_Tables_number             1
_chemical_formula_structural            K(CoS)2
_chemical_formula_sum                   'K1 Co2 S2'
_cell_volume                            89.1927200794
_cell_formula_units_Z                   1
loop_
  _symmetry_equiv_pos_site_id
  _symmetry_equiv_pos_as_xyz
   1  'x, y, z'
 
loop_
  _atom_site_type_symbol
  _atom_site_label
  _atom_site_symmetry_multiplicity
  _atom_site_fract_x
  _atom_site_fract_y
  _atom_site_fract_z
  _atom_site_attached_hydrogens
  _atom_site_B_iso_or_equiv
  _atom_site_occupancy
   S  S1  1  0.655753  0.655753  0.311506  0  .  1
   S  S2  1  0.344247  0.344247  0.688494  0  .  1
   K  K3  1  0.000000  0.000000  0.000000  0  .  1
   Co  Co4  1  0.750000  0.250000  0.500000  0  .  1
   Co  Co5  1  0.250000  0.750000  0.500000  0  .  1
 
