#\#CIF1.1
##########################################################################
#               Crystallographic Information Format file 
#               Produced by PyCifRW module
# 
#  This is a CIF file.  CIF has been adopted by the International
#  Union of Crystallography as the standard for data archiving and 
#  transmission.
#
#  For information on this file format, follow the CIF links at
#  http://www.iucr.org
##########################################################################

data_K(NiS)2
_symmetry_space_group_name_H-M          'P 1'
_cell_length_a                          3.81577320012
_cell_length_b                          3.81577310495
_cell_length_c                          6.81717738554
_cell_angle_alpha                       106.252122366
_cell_angle_beta                        106.252122006
_cell_angle_gamma                       89.9999943771
_chemical_name_systematic               'Generated by pymatgen'
_symmetry_Int_Tables_number             1
_chemical_formula_structural            K(NiS)2
_chemical_formula_sum                   'K1 Ni2 S2'
_cell_volume                            91.1536454669
_cell_formula_units_Z                   1
loop_
  _symmetry_equiv_pos_site_id
  _symmetry_equiv_pos_as_xyz
   1  'x, y, z'
 
loop_
  _atom_site_type_symbol
  _atom_site_label
  _atom_site_symmetry_multiplicity
  _atom_site_fract_x
  _atom_site_fract_y
  _atom_site_fract_z
  _atom_site_attached_hydrogens
  _atom_site_B_iso_or_equiv
  _atom_site_occupancy
   K  K1  1  0.000000  0.000000  0.000000  0  .  1
   Ni  Ni2  1  0.250000  0.750000  0.500000  0  .  1
   Ni  Ni3  1  0.750000  0.250000  0.500000  0  .  1
   S  S4  1  0.346476  0.346476  0.692952  0  .  1
   S  S5  1  0.653524  0.653524  0.307048  0  .  1
 
