#\#CIF1.1
##########################################################################
#               Crystallographic Information Format file 
#               Produced by PyCifRW module
# 
#  This is a CIF file.  CIF has been adopted by the International
#  Union of Crystallography as the standard for data archiving and 
#  transmission.
#
#  For information on this file format, follow the CIF links at
#  http://www.iucr.org
##########################################################################

data_K(NiSe)2
_symmetry_space_group_name_H-M          'P 1'
_cell_length_a                          3.94083215495
_cell_length_b                          3.94083305158
_cell_length_c                          7.09773425163
_cell_angle_alpha                       106.117734351
_cell_angle_beta                        106.117737533
_cell_angle_gamma                       89.9999925691
_chemical_name_systematic               'Generated by pymatgen'
_symmetry_Int_Tables_number             1
_chemical_formula_structural            K(NiSe)2
_chemical_formula_sum                   'K1 Ni2 Se2'
_cell_volume                            101.378475157
_cell_formula_units_Z                   1
loop_
  _symmetry_equiv_pos_site_id
  _symmetry_equiv_pos_as_xyz
   1  'x, y, z'
 
loop_
  _atom_site_type_symbol
  _atom_site_label
  _atom_site_symmetry_multiplicity
  _atom_site_fract_x
  _atom_site_fract_y
  _atom_site_fract_z
  _atom_site_attached_hydrogens
  _atom_site_B_iso_or_equiv
  _atom_site_occupancy
   K  K1  1  0.000000  0.000000  0.000000  0  .  1
   Ni  Ni2  1  0.250000  0.750000  0.500000  0  .  1
   Ni  Ni3  1  0.750000  0.250000  0.500000  0  .  1
   Se  Se4  1  0.352490  0.352490  0.704980  0  .  1
   Se  Se5  1  0.647510  0.647510  0.295020  0  .  1
 
