#\#CIF1.1
##########################################################################
#               Crystallographic Information Format file 
#               Produced by PyCifRW module
# 
#  This is a CIF file.  CIF has been adopted by the International
#  Union of Crystallography as the standard for data archiving and 
#  transmission.
#
#  For information on this file format, follow the CIF links at
#  http://www.iucr.org
##########################################################################

data_K(V5S8)2
_symmetry_space_group_name_H-M          'P 1'
_cell_length_a                          6.47140567
_cell_length_b                          8.48001482169
_cell_length_c                          17.5567482253
_cell_angle_alpha                       104.333301481
_cell_angle_beta                        90.0
_cell_angle_gamma                       90.0
_chemical_name_systematic               'Generated by pymatgen'
_symmetry_Int_Tables_number             1
_chemical_formula_structural            K(V5S8)2
_chemical_formula_sum                   'K2 V20 S32'
_cell_volume                            933.481522317
_cell_formula_units_Z                   2
loop_
  _symmetry_equiv_pos_site_id
  _symmetry_equiv_pos_as_xyz
   1  'x, y, z'
 
loop_
  _atom_site_type_symbol
  _atom_site_label
  _atom_site_symmetry_multiplicity
  _atom_site_fract_x
  _atom_site_fract_y
  _atom_site_fract_z
  _atom_site_attached_hydrogens
  _atom_site_B_iso_or_equiv
  _atom_site_occupancy
   S  S1  1  0.263439  0.672890  0.572214  0  .  1
   S  S2  1  0.514279  0.685833  0.076463  0  .  1
   S  S3  1  0.264722  0.005355  0.161478  0  .  1
   S  S4  1  0.264722  0.994645  0.838522  0  .  1
   S  S5  1  0.762576  0.004509  0.160483  0  .  1
   S  S6  1  0.762576  0.995491  0.839517  0  .  1
   S  S7  1  0.012832  0.005701  0.661713  0  .  1
   S  S8  1  0.012832  0.994299  0.338287  0  .  1
   S  S9  1  0.514767  0.004952  0.660329  0  .  1
   S  S10  1  0.514767  0.995048  0.339671  0  .  1
   S  S11  1  0.013712  0.339860  0.259519  0  .  1
   S  S12  1  0.013712  0.660140  0.740481  0  .  1
   S  S13  1  0.513621  0.341802  0.259332  0  .  1
   S  S14  1  0.513621  0.658198  0.740668  0  .  1
   S  S15  1  0.763815  0.342195  0.759444  0  .  1
   S  S16  1  0.763815  0.657805  0.240556  0  .  1
   S  S17  1  0.263883  0.340335  0.759577  0  .  1
   S  S18  1  0.263883  0.659665  0.240423  0  .  1
   S  S19  1  0.267740  0.315241  0.083661  0  .  1
   S  S20  1  0.267740  0.684759  0.916339  0  .  1
   S  S21  1  0.760320  0.315848  0.083886  0  .  1
   S  S22  1  0.760320  0.684152  0.916114  0  .  1
   S  S23  1  0.009645  0.315766  0.583892  0  .  1
   S  S24  1  0.009645  0.684234  0.416108  0  .  1
   S  S25  1  0.516933  0.315838  0.583866  0  .  1
   S  S26  1  0.516933  0.684162  0.416134  0  .  1
   S  S27  1  0.263439  0.327110  0.427786  0  .  1
   S  S28  1  0.014348  0.672652  0.072157  0  .  1
   S  S29  1  0.763336  0.314155  0.423576  0  .  1
   S  S30  1  0.763336  0.685845  0.576424  0  .  1
   S  S31  1  0.014348  0.327348  0.927843  0  .  1
   S  S32  1  0.514279  0.314167  0.923537  0  .  1
   K  K33  1  0.010199  0.000000  0.000000  0  .  1
   K  K34  1  0.259818  0.000000  0.500000  0  .  1
   V  V35  1  0.265552  0.141209  0.290132  0  .  1
   V  V36  1  0.265552  0.858791  0.709868  0  .  1
   V  V37  1  0.761924  0.138812  0.289395  0  .  1
   V  V38  1  0.761924  0.861188  0.710605  0  .  1
   V  V39  1  0.012540  0.141917  0.790323  0  .  1
   V  V40  1  0.012540  0.858083  0.209677  0  .  1
   V  V41  1  0.514990  0.139097  0.789355  0  .  1
   V  V42  1  0.514990  0.860903  0.210645  0  .  1
   V  V43  1  0.014447  0.494112  0.147744  0  .  1
   V  V44  1  0.014447  0.505888  0.852256  0  .  1
   V  V45  1  0.513415  0.495367  0.147370  0  .  1
   V  V46  1  0.513415  0.504633  0.852630  0  .  1
   V  V47  1  0.263334  0.494408  0.647804  0  .  1
   V  V48  1  0.263334  0.505592  0.352196  0  .  1
   V  V49  1  0.763715  0.495587  0.647484  0  .  1
   V  V50  1  0.763715  0.504413  0.352516  0  .  1
   V  V51  1  0.290345  0.500000  0.000000  0  .  1
   V  V52  1  0.738240  0.500000  0.000000  0  .  1
   V  V53  1  0.987382  0.500000  0.500000  0  .  1
   V  V54  1  0.539246  0.500000  0.500000  0  .  1
 
