#\#CIF1.1
##########################################################################
#               Crystallographic Information Format file 
#               Produced by PyCifRW module
# 
#  This is a CIF file.  CIF has been adopted by the International
#  Union of Crystallography as the standard for data archiving and 
#  transmission.
#
#  For information on this file format, follow the CIF links at
#  http://www.iucr.org
##########################################################################

data_K10Co4O9
_symmetry_space_group_name_H-M          'P 1'
_cell_length_a                          6.81673956357
_cell_length_b                          9.13905530089
_cell_length_c                          9.17122370284
_cell_angle_alpha                       119.18361092
_cell_angle_beta                        109.647987462
_cell_angle_gamma                       91.5039212416
_chemical_name_systematic               'Generated by pymatgen'
_symmetry_Int_Tables_number             1
_chemical_formula_structural            K10Co4O9
_chemical_formula_sum                   'K10 Co4 O9'
_cell_volume                            457.04179747
_cell_formula_units_Z                   1
loop_
  _symmetry_equiv_pos_site_id
  _symmetry_equiv_pos_as_xyz
   1  'x, y, z'
 
loop_
  _atom_site_type_symbol
  _atom_site_label
  _atom_site_symmetry_multiplicity
  _atom_site_fract_x
  _atom_site_fract_y
  _atom_site_fract_z
  _atom_site_attached_hydrogens
  _atom_site_B_iso_or_equiv
  _atom_site_occupancy
   K  K1  1  0.088060  0.222295  0.938042  0  .  1
   K  K2  1  0.057686  0.599250  0.340324  0  .  1
   K  K3  1  0.262839  0.050389  0.510526  0  .  1
   K  K4  1  0.458041  0.490192  0.676188  0  .  1
   K  K5  1  0.556802  0.938415  0.814610  0  .  1
   K  K6  1  0.450029  0.070116  0.178173  0  .  1
   K  K7  1  0.550138  0.514946  0.328438  0  .  1
   K  K8  1  0.740384  0.932820  0.473850  0  .  1
   K  K9  1  0.923947  0.400995  0.654392  0  .  1
   K  K10  1  0.908553  0.778306  0.066436  0  .  1
   Co  Co11  1  0.037543  0.787892  0.742117  0  .  1
   Co  Co12  1  0.660311  0.347848  0.953958  0  .  1
   Co  Co13  1  0.372778  0.674757  0.065318  0  .  1
   Co  Co14  1  0.964133  0.214899  0.261115  0  .  1
   O  O15  1  0.135229  0.927681  0.682029  0  .  1
   O  O16  1  0.263211  0.706445  0.869163  0  .  1
   O  O17  1  0.227511  0.311878  0.300396  0  .  1
   O  O18  1  0.309597  0.748985  0.262041  0  .  1
   O  O19  1  0.672997  0.235711  0.733066  0  .  1
   O  O20  1  0.770905  0.689866  0.696504  0  .  1
   O  O21  1  0.623823  0.577715  0.075135  0  .  1
   O  O22  1  0.717056  0.267073  0.116829  0  .  1
   O  O23  1  0.874125  0.087228  0.337648  0  .  1
 
