#\#CIF1.1
##########################################################################
#               Crystallographic Information Format file 
#               Produced by PyCifRW module
# 
#  This is a CIF file.  CIF has been adopted by the International
#  Union of Crystallography as the standard for data archiving and 
#  transmission.
#
#  For information on this file format, follow the CIF links at
#  http://www.iucr.org
##########################################################################

data_K14Fe4O13
_symmetry_space_group_name_H-M          'P 1'
_cell_length_a                          6.77846195306
_cell_length_b                          6.77500241678
_cell_length_c                          30.23203221
_cell_angle_alpha                       90.0
_cell_angle_beta                        90.0
_cell_angle_gamma                       119.258793415
_chemical_name_systematic               'Generated by pymatgen'
_symmetry_Int_Tables_number             1
_chemical_formula_structural            K14Fe4O13
_chemical_formula_sum                   'K28 Fe8 O26'
_cell_volume                            1211.25078851
_cell_formula_units_Z                   2
loop_
  _symmetry_equiv_pos_site_id
  _symmetry_equiv_pos_as_xyz
   1  'x, y, z'
 
loop_
  _atom_site_type_symbol
  _atom_site_label
  _atom_site_symmetry_multiplicity
  _atom_site_fract_x
  _atom_site_fract_y
  _atom_site_fract_z
  _atom_site_attached_hydrogens
  _atom_site_B_iso_or_equiv
  _atom_site_occupancy
   O  O1  1  0.500000  0.000000  0.500000  0  .  1
   O  O2  1  0.500000  0.500000  0.000000  0  .  1
   O  O3  1  0.440508  0.499267  0.206744  0  .  1
   O  O4  1  0.559492  0.000733  0.706744  0  .  1
   O  O5  1  0.559492  0.500733  0.793256  0  .  1
   O  O6  1  0.440508  0.999267  0.293256  0  .  1
   O  O7  1  0.941560  0.265780  0.556924  0  .  1
   O  O8  1  0.058440  0.234220  0.056924  0  .  1
   O  O9  1  0.058440  0.734220  0.443076  0  .  1
   O  O10  1  0.941560  0.765780  0.943076  0  .  1
   O  O11  1  0.932620  0.271645  0.329946  0  .  1
   O  O12  1  0.067380  0.228355  0.829946  0  .  1
   O  O13  1  0.067380  0.728355  0.670054  0  .  1
   O  O14  1  0.932620  0.771645  0.170054  0  .  1
   O  O15  1  0.671339  0.232290  0.171621  0  .  1
   O  O16  1  0.328661  0.267710  0.671621  0  .  1
   O  O17  1  0.328661  0.767710  0.828379  0  .  1
   O  O18  1  0.671339  0.732290  0.328379  0  .  1
   O  O19  1  0.676095  0.730846  0.556701  0  .  1
   O  O20  1  0.323905  0.769154  0.056701  0  .  1
   O  O21  1  0.323905  0.269154  0.443299  0  .  1
   O  O22  1  0.676095  0.230846  0.943299  0  .  1
   O  O23  1  0.527430  0.998240  0.396114  0  .  1
   O  O24  1  0.472570  0.501760  0.896114  0  .  1
   O  O25  1  0.472570  0.001760  0.603886  0  .  1
   O  O26  1  0.527430  0.498240  0.103886  0  .  1
   K  K27  1  0.851094  0.001663  0.448991  0  .  1
   K  K28  1  0.258761  0.542691  0.388701  0  .  1
   K  K29  1  0.729572  0.959387  0.001013  0  .  1
   K  K30  1  0.270428  0.540613  0.501013  0  .  1
   K  K31  1  0.270428  0.040613  0.998987  0  .  1
   K  K32  1  0.729572  0.459387  0.498987  0  .  1
   K  K33  1  0.718140  0.957799  0.113686  0  .  1
   K  K34  1  0.281860  0.542201  0.613686  0  .  1
   K  K35  1  0.281860  0.042201  0.886314  0  .  1
   K  K36  1  0.718140  0.457799  0.386314  0  .  1
   K  K37  1  0.741239  0.457309  0.611299  0  .  1
   K  K38  1  0.258761  0.042691  0.111299  0  .  1
   K  K39  1  0.723944  0.442848  0.271999  0  .  1
   K  K40  1  0.276056  0.057152  0.771999  0  .  1
   K  K41  1  0.276056  0.557152  0.728001  0  .  1
   K  K42  1  0.723944  0.942848  0.228001  0  .  1
   K  K43  1  0.130963  0.997413  0.346945  0  .  1
   K  K44  1  0.869037  0.502587  0.846945  0  .  1
   K  K45  1  0.280569  0.052428  0.219106  0  .  1
   K  K46  1  0.130963  0.497413  0.153055  0  .  1
   K  K47  1  0.869037  0.002587  0.653055  0  .  1
   K  K48  1  0.148906  0.498337  0.948991  0  .  1
   K  K49  1  0.148906  0.998337  0.551009  0  .  1
   K  K50  1  0.851094  0.501663  0.051009  0  .  1
   K  K51  1  0.280569  0.552428  0.280894  0  .  1
   K  K52  1  0.719431  0.947572  0.780894  0  .  1
   K  K53  1  0.719431  0.447572  0.719106  0  .  1
   K  K54  1  0.741239  0.957309  0.888701  0  .  1
   Fe  Fe55  1  0.649492  0.000991  0.335928  0  .  1
   Fe  Fe56  1  0.350508  0.499009  0.835928  0  .  1
   Fe  Fe57  1  0.350508  0.999009  0.664072  0  .  1
   Fe  Fe58  1  0.649492  0.500991  0.164072  0  .  1
   Fe  Fe59  1  0.343932  0.000598  0.445379  0  .  1
   Fe  Fe60  1  0.656068  0.499402  0.945379  0  .  1
   Fe  Fe61  1  0.656068  0.999402  0.554621  0  .  1
   Fe  Fe62  1  0.343932  0.500598  0.054621  0  .  1
 
