#\#CIF1.1
##########################################################################
#               Crystallographic Information Format file 
#               Produced by PyCifRW module
# 
#  This is a CIF file.  CIF has been adopted by the International
#  Union of Crystallography as the standard for data archiving and 
#  transmission.
#
#  For information on this file format, follow the CIF links at
#  http://www.iucr.org
##########################################################################

data_K17Fe5O16
_symmetry_space_group_name_H-M          'P 1'
_cell_length_a                          6.78661184702
_cell_length_b                          6.79246401011
_cell_length_c                          18.632049359
_cell_angle_alpha                       79.4902685317
_cell_angle_beta                        84.8668666896
_cell_angle_gamma                       60.6253421703
_chemical_name_systematic               'Generated by pymatgen'
_symmetry_Int_Tables_number             1
_chemical_formula_structural            K17Fe5O16
_chemical_formula_sum                   'K17 Fe5 O16'
_cell_volume                            735.912806838
_cell_formula_units_Z                   1
loop_
  _symmetry_equiv_pos_site_id
  _symmetry_equiv_pos_as_xyz
   1  'x, y, z'
 
loop_
  _atom_site_type_symbol
  _atom_site_label
  _atom_site_symmetry_multiplicity
  _atom_site_fract_x
  _atom_site_fract_y
  _atom_site_fract_z
  _atom_site_attached_hydrogens
  _atom_site_B_iso_or_equiv
  _atom_site_occupancy
   K  K1  1  0.879593  0.083573  0.830953  0  .  1
   K  K2  1  0.457808  0.326969  0.451550  0  .  1
   K  K3  1  0.607430  0.827604  0.338146  0  .  1
   K  K4  1  0.017907  0.592426  0.721277  0  .  1
   K  K5  1  0.457865  0.495444  0.091883  0  .  1
   K  K6  1  0.582793  0.997622  0.999966  0  .  1
   K  K7  1  0.607231  0.165918  0.661887  0  .  1
   K  K8  1  0.457876  0.587251  0.908152  0  .  1
   K  K9  1  0.010827  0.674283  0.534048  0  .  1
   K  K10  1  0.457832  0.778480  0.548456  0  .  1
   K  K11  1  0.011002  0.208232  0.465948  0  .  1
   K  K12  1  0.879461  0.914807  0.169024  0  .  1
   K  K13  1  0.473722  0.406213  0.274998  0  .  1
   K  K14  1  0.017869  0.313743  0.278679  0  .  1
   K  K15  1  0.000414  0.409673  0.093130  0  .  1
   K  K16  1  0.000324  0.502892  0.906879  0  .  1
   K  K17  1  0.473627  0.681269  0.724993  0  .  1
   Fe  Fe18  1  0.074576  0.998904  0.000002  0  .  1
   Fe  Fe19  1  0.085321  0.178010  0.641220  0  .  1
   Fe  Fe20  1  0.085332  0.819264  0.358778  0  .  1
   Fe  Fe21  1  0.388881  0.088726  0.820730  0  .  1
   Fe  Fe22  1  0.388932  0.909377  0.179273  0  .  1
   O  O23  1  0.408697  0.173609  0.185855  0  .  1
   O  O24  1  0.195868  0.868369  0.257279  0  .  1
   O  O25  1  0.673496  0.639874  0.185785  0  .  1
   O  O26  1  0.408661  0.359493  0.814147  0  .  1
   O  O27  1  0.066484  0.916421  0.626759  0  .  1
   O  O28  1  0.673477  0.825719  0.814214  0  .  1
   O  O29  1  0.195852  0.125669  0.742715  0  .  1
   O  O30  1  0.057022  0.729802  0.999994  0  .  1
   O  O31  1  0.299617  0.210176  0.573497  0  .  1
   O  O32  1  0.803259  0.454155  0.628390  0  .  1
   O  O33  1  0.066433  0.543230  0.373250  0  .  1
   O  O34  1  0.299610  0.783641  0.426516  0  .  1
   O  O35  1  0.803286  0.082596  0.371621  0  .  1
   O  O36  1  0.244672  0.042052  0.913997  0  .  1
   O  O37  1  0.790217  0.265657  0.000009  0  .  1
   O  O38  1  0.244686  0.956109  0.086000  0  .  1
 
