#\#CIF1.1
##########################################################################
#               Crystallographic Information Format file 
#               Produced by PyCifRW module
# 
#  This is a CIF file.  CIF has been adopted by the International
#  Union of Crystallography as the standard for data archiving and 
#  transmission.
#
#  For information on this file format, follow the CIF links at
#  http://www.iucr.org
##########################################################################

data_K2CoS2
_symmetry_space_group_name_H-M          'P 1'
_cell_length_a                          5.94958649495
_cell_length_b                          6.80595609681
_cell_length_c                          7.79606144494
_cell_angle_alpha                       115.875122928
_cell_angle_beta                        112.443957154
_cell_angle_gamma                       89.9911331837
_chemical_name_systematic               'Generated by pymatgen'
_symmetry_Int_Tables_number             1
_chemical_formula_structural            K2CoS2
_chemical_formula_sum                   'K4 Co2 S4'
_cell_volume                            257.207292534
_cell_formula_units_Z                   2
loop_
  _symmetry_equiv_pos_site_id
  _symmetry_equiv_pos_as_xyz
   1  'x, y, z'
 
loop_
  _atom_site_type_symbol
  _atom_site_label
  _atom_site_symmetry_multiplicity
  _atom_site_fract_x
  _atom_site_fract_y
  _atom_site_fract_z
  _atom_site_attached_hydrogens
  _atom_site_B_iso_or_equiv
  _atom_site_occupancy
   K  K1  1  0.853255  0.521979  0.706543  0  .  1
   K  K2  1  0.646897  0.815253  0.293608  0  .  1
   K  K3  1  0.146745  0.478021  0.293457  0  .  1
   K  K4  1  0.353103  0.184748  0.706392  0  .  1
   Co  Co5  1  0.250082  0.999985  0.000009  0  .  1
   Co  Co6  1  0.749918  0.000015  0.999991  0  .  1
   S  S7  1  0.401102  0.719527  0.802219  0  .  1
   S  S8  1  0.901149  0.082691  0.802297  0  .  1
   S  S9  1  0.098851  0.917309  0.197703  0  .  1
   S  S10  1  0.598898  0.280473  0.197781  0  .  1
 
