#\#CIF1.1
##########################################################################
#               Crystallographic Information Format file 
#               Produced by PyCifRW module
# 
#  This is a CIF file.  CIF has been adopted by the International
#  Union of Crystallography as the standard for data archiving and 
#  transmission.
#
#  For information on this file format, follow the CIF links at
#  http://www.iucr.org
##########################################################################

data_K2CoO2
_symmetry_space_group_name_H-M          'P 1'
_cell_length_a                          6.66165036832
_cell_length_b                          7.02587975437
_cell_length_c                          9.59817381
_cell_angle_alpha                       90.0
_cell_angle_beta                        90.0
_cell_angle_gamma                       117.132485971
_chemical_name_systematic               'Generated by pymatgen'
_symmetry_Int_Tables_number             1
_chemical_formula_structural            K2CoO2
_chemical_formula_sum                   'K8 Co4 O8'
_cell_volume                            399.796419018
_cell_formula_units_Z                   4
loop_
  _symmetry_equiv_pos_site_id
  _symmetry_equiv_pos_as_xyz
   1  'x, y, z'
 
loop_
  _atom_site_type_symbol
  _atom_site_label
  _atom_site_symmetry_multiplicity
  _atom_site_fract_x
  _atom_site_fract_y
  _atom_site_fract_z
  _atom_site_attached_hydrogens
  _atom_site_B_iso_or_equiv
  _atom_site_occupancy
   O  O1  1  0.957085  0.271261  0.650917  0  .  1
   O  O2  1  0.509959  0.307653  0.982611  0  .  1
   O  O3  1  0.490041  0.192347  0.482611  0  .  1
   O  O4  1  0.957085  0.771261  0.849083  0  .  1
   O  O5  1  0.490041  0.692347  0.017389  0  .  1
   O  O6  1  0.042915  0.728739  0.349083  0  .  1
   O  O7  1  0.042915  0.228739  0.150917  0  .  1
   O  O8  1  0.509959  0.807653  0.517389  0  .  1
   K  K9  1  0.249923  0.135452  0.736829  0  .  1
   K  K10  1  0.249923  0.635452  0.763171  0  .  1
   K  K11  1  0.218936  0.895949  0.085043  0  .  1
   K  K12  1  0.218936  0.395949  0.414957  0  .  1
   K  K13  1  0.781064  0.104051  0.914957  0  .  1
   K  K14  1  0.781064  0.604051  0.585043  0  .  1
   K  K15  1  0.750077  0.364548  0.236829  0  .  1
   K  K16  1  0.750077  0.864548  0.263171  0  .  1
   Co  Co17  1  0.299117  0.404956  0.068840  0  .  1
   Co  Co18  1  0.700883  0.595044  0.931160  0  .  1
   Co  Co19  1  0.299117  0.904956  0.431160  0  .  1
   Co  Co20  1  0.700883  0.095044  0.568840  0  .  1
 
