#\#CIF1.1
##########################################################################
#               Crystallographic Information Format file 
#               Produced by PyCifRW module
# 
#  This is a CIF file.  CIF has been adopted by the International
#  Union of Crystallography as the standard for data archiving and 
#  transmission.
#
#  For information on this file format, follow the CIF links at
#  http://www.iucr.org
##########################################################################

data_K2CrO4
_symmetry_space_group_name_H-M          'P 1'
_cell_length_a                          6.04099823032
_cell_length_b                          8.32553645
_cell_length_c                          11.7259273439
_cell_angle_alpha                       90.0
_cell_angle_beta                        118.955271796
_cell_angle_gamma                       90.0
_chemical_name_systematic               'Generated by pymatgen'
_symmetry_Int_Tables_number             1
_chemical_formula_structural            K2CrO4
_chemical_formula_sum                   'K8 Cr4 O16'
_cell_volume                            516.030236122
_cell_formula_units_Z                   4
loop_
  _symmetry_equiv_pos_site_id
  _symmetry_equiv_pos_as_xyz
   1  'x, y, z'
 
loop_
  _atom_site_type_symbol
  _atom_site_label
  _atom_site_symmetry_multiplicity
  _atom_site_fract_x
  _atom_site_fract_y
  _atom_site_fract_z
  _atom_site_attached_hydrogens
  _atom_site_B_iso_or_equiv
  _atom_site_occupancy
   K  K1  1  0.215445  0.728479  0.907042  0  .  1
   K  K2  1  0.450094  0.491175  0.713467  0  .  1
   K  K3  1  0.215445  0.771521  0.407042  0  .  1
   K  K4  1  0.549906  0.991175  0.786533  0  .  1
   K  K5  1  0.450094  0.008825  0.213467  0  .  1
   K  K6  1  0.784555  0.228479  0.592958  0  .  1
   K  K7  1  0.549906  0.508825  0.286533  0  .  1
   K  K8  1  0.784555  0.271521  0.092958  0  .  1
   Cr  Cr9  1  0.129318  0.266908  0.933928  0  .  1
   Cr  Cr10  1  0.129318  0.233092  0.433928  0  .  1
   Cr  Cr11  1  0.870682  0.766908  0.566072  0  .  1
   Cr  Cr12  1  0.870682  0.733092  0.066072  0  .  1
   O  O13  1  0.226862  0.087324  0.915000  0  .  1
   O  O14  1  0.237010  0.406935  0.872008  0  .  1
   O  O15  1  0.241973  0.201557  0.593177  0  .  1
   O  O16  1  0.187594  0.770895  0.640890  0  .  1
   O  O17  1  0.226862  0.412676  0.415000  0  .  1
   O  O18  1  0.237010  0.093065  0.372008  0  .  1
   O  O19  1  0.812406  0.270895  0.859110  0  .  1
   O  O20  1  0.758027  0.701557  0.906823  0  .  1
   O  O21  1  0.241973  0.298443  0.093177  0  .  1
   O  O22  1  0.187594  0.729105  0.140890  0  .  1
   O  O23  1  0.762990  0.906935  0.627992  0  .  1
   O  O24  1  0.773138  0.587324  0.585000  0  .  1
   O  O25  1  0.812406  0.229105  0.359110  0  .  1
   O  O26  1  0.758027  0.798443  0.406823  0  .  1
   O  O27  1  0.762990  0.593065  0.127992  0  .  1
   O  O28  1  0.773138  0.912676  0.085000  0  .  1
 
