#\#CIF1.1
##########################################################################
#               Crystallographic Information Format file 
#               Produced by PyCifRW module
# 
#  This is a CIF file.  CIF has been adopted by the International
#  Union of Crystallography as the standard for data archiving and 
#  transmission.
#
#  For information on this file format, follow the CIF links at
#  http://www.iucr.org
##########################################################################

data_K2CuP
_symmetry_space_group_name_H-M          'P 1'
_cell_length_a                          5.78554009
_cell_length_b                          6.19292822641
_cell_length_c                          6.19292822964
_cell_angle_alpha                       106.256114737
_cell_angle_beta                        90.0
_cell_angle_gamma                       90.0
_chemical_name_systematic               'Generated by pymatgen'
_symmetry_Int_Tables_number             1
_chemical_formula_structural            K2CuP
_chemical_formula_sum                   'K4 Cu2 P2'
_cell_volume                            213.017986318
_cell_formula_units_Z                   2
loop_
  _symmetry_equiv_pos_site_id
  _symmetry_equiv_pos_as_xyz
   1  'x, y, z'
 
loop_
  _atom_site_type_symbol
  _atom_site_label
  _atom_site_symmetry_multiplicity
  _atom_site_fract_x
  _atom_site_fract_y
  _atom_site_fract_z
  _atom_site_attached_hydrogens
  _atom_site_B_iso_or_equiv
  _atom_site_occupancy
   P  P1  1  0.750000  0.732108  0.732108  0  .  1
   P  P2  1  0.250000  0.267892  0.267892  0  .  1
   K  K3  1  0.750000  0.313875  0.975289  0  .  1
   K  K4  1  0.750000  0.975289  0.313875  0  .  1
   K  K5  1  0.250000  0.686125  0.024711  0  .  1
   K  K6  1  0.250000  0.024711  0.686125  0  .  1
   Cu  Cu7  1  0.500000  0.500000  0.500000  0  .  1
   Cu  Cu8  1  0.000000  0.500000  0.500000  0  .  1
 
