#\#CIF1.1
##########################################################################
#               Crystallographic Information Format file 
#               Produced by PyCifRW module
# 
#  This is a CIF file.  CIF has been adopted by the International
#  Union of Crystallography as the standard for data archiving and 
#  transmission.
#
#  For information on this file format, follow the CIF links at
#  http://www.iucr.org
##########################################################################

data_K2FeO4
_symmetry_space_group_name_H-M          'P 1'
_cell_length_a                          5.9395735
_cell_length_b                          7.79707035
_cell_length_c                          10.50771148
_cell_angle_alpha                       90.0
_cell_angle_beta                        90.0
_cell_angle_gamma                       90.0
_chemical_name_systematic               'Generated by pymatgen'
_symmetry_Int_Tables_number             1
_chemical_formula_structural            K2FeO4
_chemical_formula_sum                   'K8 Fe4 O16'
_cell_volume                            486.62548895
_cell_formula_units_Z                   4
loop_
  _symmetry_equiv_pos_site_id
  _symmetry_equiv_pos_as_xyz
   1  'x, y, z'
 
loop_
  _atom_site_type_symbol
  _atom_site_label
  _atom_site_symmetry_multiplicity
  _atom_site_fract_x
  _atom_site_fract_y
  _atom_site_fract_z
  _atom_site_attached_hydrogens
  _atom_site_B_iso_or_equiv
  _atom_site_occupancy
   O  O1  1  0.978651  0.806780  0.850741  0  .  1
   O  O2  1  0.478651  0.193220  0.149260  0  .  1
   O  O3  1  0.521349  0.306780  0.649259  0  .  1
   O  O4  1  0.021348  0.693220  0.350741  0  .  1
   O  O5  1  0.021348  0.193220  0.149260  0  .  1
   O  O6  1  0.521349  0.806780  0.850741  0  .  1
   O  O7  1  0.478651  0.693220  0.350741  0  .  1
   O  O8  1  0.978651  0.306780  0.649259  0  .  1
   O  O9  1  0.250000  0.201182  0.927386  0  .  1
   O  O10  1  0.750000  0.798818  0.072613  0  .  1
   O  O11  1  0.250000  0.701182  0.572614  0  .  1
   O  O12  1  0.750000  0.298818  0.427386  0  .  1
   O  O13  1  0.750000  0.018010  0.583302  0  .  1
   O  O14  1  0.250000  0.981990  0.416698  0  .  1
   O  O15  1  0.250000  0.481990  0.083302  0  .  1
   O  O16  1  0.750000  0.518010  0.916698  0  .  1
   K  K17  1  0.250000  0.513581  0.803781  0  .  1
   K  K18  1  0.750000  0.486419  0.196219  0  .  1
   K  K19  1  0.250000  0.013581  0.696219  0  .  1
   K  K20  1  0.750000  0.986419  0.303780  0  .  1
   K  K21  1  0.250000  0.836706  0.085082  0  .  1
   K  K22  1  0.750000  0.163294  0.914918  0  .  1
   K  K23  1  0.750000  0.663294  0.585082  0  .  1
   K  K24  1  0.250000  0.336706  0.414918  0  .  1
   Fe  Fe25  1  0.250000  0.269940  0.077742  0  .  1
   Fe  Fe26  1  0.750000  0.730060  0.922259  0  .  1
   Fe  Fe27  1  0.250000  0.769940  0.422259  0  .  1
   Fe  Fe28  1  0.750000  0.230060  0.577741  0  .  1
 
