#\#CIF1.1
##########################################################################
#               Crystallographic Information Format file 
#               Produced by PyCifRW module
# 
#  This is a CIF file.  CIF has been adopted by the International
#  Union of Crystallography as the standard for data archiving and 
#  transmission.
#
#  For information on this file format, follow the CIF links at
#  http://www.iucr.org
##########################################################################

data_K2La2Ti3O10
_symmetry_space_group_name_H-M          'P 1'
_cell_length_a                          3.91119620752
_cell_length_b                          3.91119621012
_cell_length_c                          15.2811576542
_cell_angle_alpha                       97.3525604955
_cell_angle_beta                        97.3525604991
_cell_angle_gamma                       89.9999999891
_chemical_name_systematic               'Generated by pymatgen'
_symmetry_Int_Tables_number             1
_chemical_formula_structural            K2La2Ti3O10
_chemical_formula_sum                   'K2 La2 Ti3 O10'
_cell_volume                            229.902516451
_cell_formula_units_Z                   1
loop_
  _symmetry_equiv_pos_site_id
  _symmetry_equiv_pos_as_xyz
   1  'x, y, z'
 
loop_
  _atom_site_type_symbol
  _atom_site_label
  _atom_site_symmetry_multiplicity
  _atom_site_fract_x
  _atom_site_fract_y
  _atom_site_fract_z
  _atom_site_attached_hydrogens
  _atom_site_B_iso_or_equiv
  _atom_site_occupancy
   O  O1  1  0.801406  0.801406  0.602812  0  .  1
   O  O2  1  0.198594  0.198594  0.397188  0  .  1
   O  O3  1  0.873495  0.373495  0.746990  0  .  1
   O  O4  1  0.373495  0.873495  0.746990  0  .  1
   O  O5  1  0.126505  0.626505  0.253010  0  .  1
   O  O6  1  0.626505  0.126505  0.253010  0  .  1
   O  O7  1  0.935752  0.935752  0.871504  0  .  1
   O  O8  1  0.500000  0.000000  0.000000  0  .  1
   O  O9  1  0.000000  0.500000  0.000000  0  .  1
   O  O10  1  0.064248  0.064248  0.128496  0  .  1
   K  K11  1  0.292256  0.292256  0.584513  0  .  1
   K  K12  1  0.707744  0.707744  0.415487  0  .  1
   Ti  Ti13  1  0.139909  0.139909  0.279817  0  .  1
   Ti  Ti14  1  0.860091  0.860091  0.720183  0  .  1
   Ti  Ti15  1  0.000000  0.000000  0.000000  0  .  1
   La  La16  1  0.428444  0.428444  0.856888  0  .  1
   La  La17  1  0.571556  0.571556  0.143112  0  .  1
 
