#\#CIF1.1
##########################################################################
#               Crystallographic Information Format file 
#               Produced by PyCifRW module
# 
#  This is a CIF file.  CIF has been adopted by the International
#  Union of Crystallography as the standard for data archiving and 
#  transmission.
#
#  For information on this file format, follow the CIF links at
#  http://www.iucr.org
##########################################################################

data_K2MnS2
_symmetry_space_group_name_H-M          'P 1'
_cell_length_a                          6.30391313683
_cell_length_b                          6.93363158612
_cell_length_c                          7.89991148003
_cell_angle_alpha                       116.030042387
_cell_angle_beta                        113.514823402
_cell_angle_gamma                       90.0000000157
_chemical_name_systematic               'Generated by pymatgen'
_symmetry_Int_Tables_number             1
_chemical_formula_structural            K2MnS2
_chemical_formula_sum                   'K4 Mn2 S4'
_cell_volume                            278.007727304
_cell_formula_units_Z                   2
loop_
  _symmetry_equiv_pos_site_id
  _symmetry_equiv_pos_as_xyz
   1  'x, y, z'
 
loop_
  _atom_site_type_symbol
  _atom_site_label
  _atom_site_symmetry_multiplicity
  _atom_site_fract_x
  _atom_site_fract_y
  _atom_site_fract_z
  _atom_site_attached_hydrogens
  _atom_site_B_iso_or_equiv
  _atom_site_occupancy
   S  S1  1  0.397822  0.705067  0.795644  0  .  1
   S  S2  1  0.102178  0.909422  0.204356  0  .  1
   S  S3  1  0.602178  0.294933  0.204356  0  .  1
   S  S4  1  0.897822  0.090578  0.795644  0  .  1
   K  K5  1  0.352844  0.193861  0.705688  0  .  1
   K  K6  1  0.147156  0.488173  0.294312  0  .  1
   K  K7  1  0.647156  0.806139  0.294312  0  .  1
   K  K8  1  0.852844  0.511827  0.705688  0  .  1
   Mn  Mn9  1  0.250000  0.000000  0.000000  0  .  1
   Mn  Mn10  1  0.750000  0.000000  0.000000  0  .  1
 
