#\#CIF1.1
##########################################################################
#               Crystallographic Information Format file 
#               Produced by PyCifRW module
# 
#  This is a CIF file.  CIF has been adopted by the International
#  Union of Crystallography as the standard for data archiving and 
#  transmission.
#
#  For information on this file format, follow the CIF links at
#  http://www.iucr.org
##########################################################################

data_K2Mn2O3
_symmetry_space_group_name_H-M          'P 1'
_cell_length_a                          6.18832643569
_cell_length_b                          6.55441455211
_cell_length_c                          6.53402497
_cell_angle_alpha                       90.0
_cell_angle_beta                        90.0
_cell_angle_gamma                       115.42499192
_chemical_name_systematic               'Generated by pymatgen'
_symmetry_Int_Tables_number             1
_chemical_formula_structural            K2Mn2O3
_chemical_formula_sum                   'K4 Mn4 O6'
_cell_volume                            239.357415959
_cell_formula_units_Z                   2
loop_
  _symmetry_equiv_pos_site_id
  _symmetry_equiv_pos_as_xyz
   1  'x, y, z'
 
loop_
  _atom_site_type_symbol
  _atom_site_label
  _atom_site_symmetry_multiplicity
  _atom_site_fract_x
  _atom_site_fract_y
  _atom_site_fract_z
  _atom_site_attached_hydrogens
  _atom_site_B_iso_or_equiv
  _atom_site_occupancy
   O  O1  1  0.000000  0.500000  0.500000  0  .  1
   O  O2  1  0.588829  0.714703  0.630207  0  .  1
   O  O3  1  0.411171  0.785297  0.130207  0  .  1
   O  O4  1  0.411171  0.285297  0.369793  0  .  1
   O  O5  1  0.000000  0.000000  0.000000  0  .  1
   O  O6  1  0.588829  0.214703  0.869793  0  .  1
   K  K7  1  0.816404  0.071928  0.360797  0  .  1
   K  K8  1  0.816404  0.571928  0.139203  0  .  1
   K  K9  1  0.183596  0.928072  0.639203  0  .  1
   K  K10  1  0.183596  0.428072  0.860797  0  .  1
   Mn  Mn11  1  0.332404  0.071829  0.114743  0  .  1
   Mn  Mn12  1  0.332404  0.571829  0.385257  0  .  1
   Mn  Mn13  1  0.667596  0.928171  0.885257  0  .  1
   Mn  Mn14  1  0.667596  0.428171  0.614743  0  .  1
 
