#\#CIF1.1
##########################################################################
#               Crystallographic Information Format file 
#               Produced by PyCifRW module
# 
#  This is a CIF file.  CIF has been adopted by the International
#  Union of Crystallography as the standard for data archiving and 
#  transmission.
#
#  For information on this file format, follow the CIF links at
#  http://www.iucr.org
##########################################################################

data_K2Mn3S4
_symmetry_space_group_name_H-M          'P 1'
_cell_length_a                          6.02701179
_cell_length_b                          7.31283691023
_cell_length_c                          10.760271877
_cell_angle_alpha                       106.625091488
_cell_angle_beta                        90.0
_cell_angle_gamma                       90.0
_chemical_name_systematic               'Generated by pymatgen'
_symmetry_Int_Tables_number             1
_chemical_formula_structural            K2Mn3S4
_chemical_formula_sum                   'K4 Mn6 S8'
_cell_volume                            454.429115202
_cell_formula_units_Z                   2
loop_
  _symmetry_equiv_pos_site_id
  _symmetry_equiv_pos_as_xyz
   1  'x, y, z'
 
loop_
  _atom_site_type_symbol
  _atom_site_label
  _atom_site_symmetry_multiplicity
  _atom_site_fract_x
  _atom_site_fract_y
  _atom_site_fract_z
  _atom_site_attached_hydrogens
  _atom_site_B_iso_or_equiv
  _atom_site_occupancy
   S  S1  1  0.465366  0.271242  0.063119  0  .  1
   S  S2  1  0.967443  0.040870  0.833036  0  .  1
   S  S3  1  0.967443  0.459130  0.666964  0  .  1
   S  S4  1  0.465366  0.228758  0.436881  0  .  1
   S  S5  1  0.032557  0.540870  0.333036  0  .  1
   S  S6  1  0.032557  0.959130  0.166964  0  .  1
   S  S7  1  0.534634  0.771242  0.563119  0  .  1
   S  S8  1  0.534634  0.728758  0.936881  0  .  1
   K  K9  1  0.505504  0.750000  0.250000  0  .  1
   K  K10  1  0.000000  0.000000  0.500000  0  .  1
   K  K11  1  0.000000  0.500000  0.000000  0  .  1
   K  K12  1  0.494496  0.250000  0.750000  0  .  1
   Mn  Mn13  1  0.750038  0.469582  0.470866  0  .  1
   Mn  Mn14  1  0.750038  0.030418  0.029134  0  .  1
   Mn  Mn15  1  0.249963  0.530418  0.529134  0  .  1
   Mn  Mn16  1  0.249963  0.969582  0.970866  0  .  1
   Mn  Mn17  1  0.750600  0.750000  0.750000  0  .  1
   Mn  Mn18  1  0.249400  0.250000  0.250000  0  .  1
 
