#\#CIF1.1
##########################################################################
#               Crystallographic Information Format file 
#               Produced by PyCifRW module
# 
#  This is a CIF file.  CIF has been adopted by the International
#  Union of Crystallography as the standard for data archiving and 
#  transmission.
#
#  For information on this file format, follow the CIF links at
#  http://www.iucr.org
##########################################################################

data_K2NiP2
_symmetry_space_group_name_H-M          'P 1'
_cell_length_a                          5.61145707
_cell_length_b                          6.42116220369
_cell_length_c                          7.62269574403
_cell_angle_alpha                       114.909556619
_cell_angle_beta                        90.0
_cell_angle_gamma                       90.0
_chemical_name_systematic               'Generated by pymatgen'
_symmetry_Int_Tables_number             1
_chemical_formula_structural            K2NiP2
_chemical_formula_sum                   'K4 Ni2 P4'
_cell_volume                            249.110825381
_cell_formula_units_Z                   2
loop_
  _symmetry_equiv_pos_site_id
  _symmetry_equiv_pos_as_xyz
   1  'x, y, z'
 
loop_
  _atom_site_type_symbol
  _atom_site_label
  _atom_site_symmetry_multiplicity
  _atom_site_fract_x
  _atom_site_fract_y
  _atom_site_fract_z
  _atom_site_attached_hydrogens
  _atom_site_B_iso_or_equiv
  _atom_site_occupancy
   P  P1  1  0.750000  0.270434  0.200706  0  .  1
   P  P2  1  0.250000  0.069728  0.799294  0  .  1
   P  P3  1  0.250000  0.729566  0.799294  0  .  1
   P  P4  1  0.750000  0.930272  0.200706  0  .  1
   K  K5  1  0.750000  0.416642  0.833284  0  .  1
   K  K6  1  0.750000  0.786867  0.573734  0  .  1
   K  K7  1  0.250000  0.583358  0.166716  0  .  1
   K  K8  1  0.250000  0.213133  0.426266  0  .  1
   Ni  Ni9  1  0.000000  0.000000  0.000000  0  .  1
   Ni  Ni10  1  0.500000  0.000000  0.000000  0  .  1
 
