#\#CIF1.1
##########################################################################
#               Crystallographic Information Format file 
#               Produced by PyCifRW module
# 
#  This is a CIF file.  CIF has been adopted by the International
#  Union of Crystallography as the standard for data archiving and 
#  transmission.
#
#  For information on this file format, follow the CIF links at
#  http://www.iucr.org
##########################################################################

data_K2NiO2
_symmetry_space_group_name_H-M          'P 1'
_cell_length_a                          3.96490903267
_cell_length_b                          3.96490903113
_cell_length_c                          7.08127369493
_cell_angle_alpha                       106.257658383
_cell_angle_beta                        106.25765834
_cell_angle_gamma                       89.9999999632
_chemical_name_systematic               'Generated by pymatgen'
_symmetry_Int_Tables_number             1
_chemical_formula_structural            K2NiO2
_chemical_formula_sum                   'K2 Ni1 O2'
_cell_volume                            102.224604543
_cell_formula_units_Z                   1
loop_
  _symmetry_equiv_pos_site_id
  _symmetry_equiv_pos_as_xyz
   1  'x, y, z'
 
loop_
  _atom_site_type_symbol
  _atom_site_label
  _atom_site_symmetry_multiplicity
  _atom_site_fract_x
  _atom_site_fract_y
  _atom_site_fract_z
  _atom_site_attached_hydrogens
  _atom_site_B_iso_or_equiv
  _atom_site_occupancy
   O  O1  1  0.132312  0.132311  0.264622  0  .  1
   O  O2  1  0.867690  0.867688  0.735377  0  .  1
   K  K3  1  0.658473  0.658473  0.316947  0  .  1
   K  K4  1  0.341526  0.341527  0.683053  0  .  1
   Ni  Ni5  1  0.000000  0.000000  0.000000  0  .  1
 
