#\#CIF1.1
##########################################################################
#               Crystallographic Information Format file 
#               Produced by PyCifRW module
# 
#  This is a CIF file.  CIF has been adopted by the International
#  Union of Crystallography as the standard for data archiving and 
#  transmission.
#
#  For information on this file format, follow the CIF links at
#  http://www.iucr.org
##########################################################################

data_K2Ti2O5
_symmetry_space_group_name_H-M          'P 1'
_cell_length_a                          3.8069722
_cell_length_b                          6.06862332889
_cell_length_c                          6.73078808937
_cell_angle_alpha                       99.0232694192
_cell_angle_beta                        90.0
_cell_angle_gamma                       108.27995513
_chemical_name_systematic               'Generated by pymatgen'
_symmetry_Int_Tables_number             1
_chemical_formula_structural            K2Ti2O5
_chemical_formula_sum                   'K2 Ti2 O5'
_cell_volume                            145.626533454
_cell_formula_units_Z                   1
loop_
  _symmetry_equiv_pos_site_id
  _symmetry_equiv_pos_as_xyz
   1  'x, y, z'
 
loop_
  _atom_site_type_symbol
  _atom_site_label
  _atom_site_symmetry_multiplicity
  _atom_site_fract_x
  _atom_site_fract_y
  _atom_site_fract_z
  _atom_site_attached_hydrogens
  _atom_site_B_iso_or_equiv
  _atom_site_occupancy
   O  O1  1  0.677903  0.355807  0.989161  0  .  1
   O  O2  1  0.322097  0.644193  0.010839  0  .  1
   O  O3  1  0.874338  0.748676  0.352613  0  .  1
   O  O4  1  0.125662  0.251324  0.647387  0  .  1
   O  O5  1  0.000000  0.000000  0.000000  0  .  1
   K  K6  1  0.598704  0.197407  0.351894  0  .  1
   K  K7  1  0.401296  0.802593  0.648106  0  .  1
   Ti  Ti8  1  0.852621  0.705242  0.091827  0  .  1
   Ti  Ti9  1  0.147379  0.294758  0.908173  0  .  1
 
