#\#CIF1.1
##########################################################################
#               Crystallographic Information Format file 
#               Produced by PyCifRW module
# 
#  This is a CIF file.  CIF has been adopted by the International
#  Union of Crystallography as the standard for data archiving and 
#  transmission.
#
#  For information on this file format, follow the CIF links at
#  http://www.iucr.org
##########################################################################

data_K2Ti6O13
_symmetry_space_group_name_H-M          'P 1'
_cell_length_a                          3.8202064
_cell_length_b                          8.13943650323
_cell_length_c                          9.23646629628
_cell_angle_alpha                       99.7985892632
_cell_angle_beta                        90.0
_cell_angle_gamma                       103.572327884
_chemical_name_systematic               'Generated by pymatgen'
_symmetry_Int_Tables_number             1
_chemical_formula_structural            K2Ti6O13
_chemical_formula_sum                   'K2 Ti6 O13'
_cell_volume                            274.869548797
_cell_formula_units_Z                   1
loop_
  _symmetry_equiv_pos_site_id
  _symmetry_equiv_pos_as_xyz
   1  'x, y, z'
 
loop_
  _atom_site_type_symbol
  _atom_site_label
  _atom_site_symmetry_multiplicity
  _atom_site_fract_x
  _atom_site_fract_y
  _atom_site_fract_z
  _atom_site_attached_hydrogens
  _atom_site_B_iso_or_equiv
  _atom_site_occupancy
   O  O1  1  0.833573  0.667147  0.085504  0  .  1
   O  O2  1  0.166427  0.332853  0.914496  0  .  1
   O  O3  1  0.642114  0.284227  0.112073  0  .  1
   O  O4  1  0.357886  0.715773  0.887927  0  .  1
   O  O5  1  0.865157  0.730315  0.385158  0  .  1
   O  O6  1  0.134843  0.269685  0.614842  0  .  1
   O  O7  1  0.703364  0.406728  0.428588  0  .  1
   O  O8  1  0.296636  0.593272  0.571412  0  .  1
   O  O9  1  0.000000  0.000000  0.000000  0  .  1
   O  O10  1  0.239368  0.478737  0.239926  0  .  1
   O  O11  1  0.760632  0.521263  0.760074  0  .  1
   O  O12  1  0.078599  0.157198  0.290215  0  .  1
   O  O13  1  0.921401  0.842802  0.709785  0  .  1
   K  K14  1  0.544472  0.088945  0.750658  0  .  1
   K  K15  1  0.455528  0.911055  0.249342  0  .  1
   Ti  Ti16  1  0.768434  0.536868  0.223593  0  .  1
   Ti  Ti17  1  0.231566  0.463132  0.776407  0  .  1
   Ti  Ti18  1  0.828467  0.656933  0.562545  0  .  1
   Ti  Ti19  1  0.171533  0.343067  0.437455  0  .  1
   Ti  Ti20  1  0.885325  0.770650  0.904022  0  .  1
   Ti  Ti21  1  0.114675  0.229350  0.095978  0  .  1
 
