#\#CIF1.1
##########################################################################
#               Crystallographic Information Format file 
#               Produced by PyCifRW module
# 
#  This is a CIF file.  CIF has been adopted by the International
#  Union of Crystallography as the standard for data archiving and 
#  transmission.
#
#  For information on this file format, follow the CIF links at
#  http://www.iucr.org
##########################################################################

data_K2V3O8
_symmetry_space_group_name_H-M          'P 1'
_cell_length_a                          5.50644272
_cell_length_b                          9.02440653
_cell_length_c                          9.02440653
_cell_angle_alpha                       90.0
_cell_angle_beta                        90.0
_cell_angle_gamma                       90.0
_chemical_name_systematic               'Generated by pymatgen'
_symmetry_Int_Tables_number             1
_chemical_formula_structural            K2V3O8
_chemical_formula_sum                   'K4 V6 O16'
_cell_volume                            448.444217261
_cell_formula_units_Z                   2
loop_
  _symmetry_equiv_pos_site_id
  _symmetry_equiv_pos_as_xyz
   1  'x, y, z'
 
loop_
  _atom_site_type_symbol
  _atom_site_label
  _atom_site_symmetry_multiplicity
  _atom_site_fract_x
  _atom_site_fract_y
  _atom_site_fract_z
  _atom_site_attached_hydrogens
  _atom_site_B_iso_or_equiv
  _atom_site_occupancy
   O  O1  1  0.933083  0.500000  0.500000  0  .  1
   O  O2  1  0.933083  0.000000  0.000000  0  .  1
   O  O3  1  0.525013  0.500000  0.000000  0  .  1
   O  O4  1  0.525013  0.000000  0.500000  0  .  1
   O  O5  1  0.946028  0.631934  0.868066  0  .  1
   O  O6  1  0.946028  0.131934  0.631934  0  .  1
   O  O7  1  0.946028  0.868066  0.368066  0  .  1
   O  O8  1  0.946028  0.368066  0.131934  0  .  1
   O  O9  1  0.528998  0.586832  0.691985  0  .  1
   O  O10  1  0.528998  0.413168  0.308015  0  .  1
   O  O11  1  0.528998  0.191985  0.086832  0  .  1
   O  O12  1  0.528998  0.913168  0.191985  0  .  1
   O  O13  1  0.528998  0.086832  0.808015  0  .  1
   O  O14  1  0.528998  0.808015  0.913168  0  .  1
   O  O15  1  0.528998  0.308015  0.586832  0  .  1
   O  O16  1  0.528998  0.691985  0.413168  0  .  1
   K  K17  1  0.177407  0.670070  0.170070  0  .  1
   K  K18  1  0.177407  0.829930  0.670070  0  .  1
   K  K19  1  0.177407  0.170070  0.329930  0  .  1
   K  K20  1  0.177407  0.329930  0.829930  0  .  1
   V  V21  1  0.643090  0.865691  0.365691  0  .  1
   V  V22  1  0.643090  0.365691  0.134309  0  .  1
   V  V23  1  0.643090  0.134309  0.634309  0  .  1
   V  V24  1  0.643090  0.634309  0.865691  0  .  1
   V  V25  1  0.634804  0.000000  0.000000  0  .  1
   V  V26  1  0.634804  0.500000  0.500000  0  .  1
 
