#\#CIF1.1
##########################################################################
#               Crystallographic Information Format file 
#               Produced by PyCifRW module
# 
#  This is a CIF file.  CIF has been adopted by the International
#  Union of Crystallography as the standard for data archiving and 
#  transmission.
#
#  For information on this file format, follow the CIF links at
#  http://www.iucr.org
##########################################################################

data_K2V8O21
_symmetry_space_group_name_H-M          'P 1'
_cell_length_a                          3.6312511
_cell_length_b                          7.88777664361
_cell_length_c                          15.0903138283
_cell_angle_alpha                       91.0577278222
_cell_angle_beta                        90.0
_cell_angle_gamma                       103.307797133
_chemical_name_systematic               'Generated by pymatgen'
_symmetry_Int_Tables_number             1
_chemical_formula_structural            K2V8O21
_chemical_formula_sum                   'K2 V8 O21'
_cell_volume                            420.542318129
_cell_formula_units_Z                   1
loop_
  _symmetry_equiv_pos_site_id
  _symmetry_equiv_pos_as_xyz
   1  'x, y, z'
 
loop_
  _atom_site_type_symbol
  _atom_site_label
  _atom_site_symmetry_multiplicity
  _atom_site_fract_x
  _atom_site_fract_y
  _atom_site_fract_z
  _atom_site_attached_hydrogens
  _atom_site_B_iso_or_equiv
  _atom_site_occupancy
   K  K1  1  0.473603  0.947206  0.688117  0  .  1
   K  K2  1  0.526397  0.052794  0.311883  0  .  1
   V  V3  1  0.311559  0.623118  0.929066  0  .  1
   V  V4  1  0.908928  0.817855  0.074554  0  .  1
   V  V5  1  0.169416  0.338832  0.521187  0  .  1
   V  V6  1  0.810169  0.620338  0.269678  0  .  1
   V  V7  1  0.091072  0.182145  0.925446  0  .  1
   V  V8  1  0.830584  0.661168  0.478813  0  .  1
   V  V9  1  0.688441  0.376882  0.070934  0  .  1
   V  V10  1  0.189831  0.379662  0.730322  0  .  1
   O  O11  1  0.212629  0.425258  0.860101  0  .  1
   O  O12  1  0.708759  0.417518  0.526448  0  .  1
   O  O13  1  0.616980  0.233960  0.952607  0  .  1
   O  O14  1  0.045291  0.090582  0.825863  0  .  1
   O  O15  1  0.954709  0.909418  0.174137  0  .  1
   O  O16  1  0.115007  0.230015  0.623351  0  .  1
   O  O17  1  0.713119  0.426239  0.311024  0  .  1
   O  O18  1  0.663634  0.327269  0.739541  0  .  1
   O  O19  1  0.093892  0.187784  0.443178  0  .  1
   O  O20  1  0.805787  0.611575  0.966578  0  .  1
   O  O21  1  0.613082  0.226165  0.144398  0  .  1
   O  O22  1  0.884993  0.769985  0.376649  0  .  1
   O  O23  1  0.291241  0.582482  0.473552  0  .  1
   O  O24  1  0.286881  0.573761  0.688976  0  .  1
   O  O25  1  0.000000  0.000000  0.000000  0  .  1
   O  O26  1  0.383020  0.766040  0.047393  0  .  1
   O  O27  1  0.787371  0.574742  0.139899  0  .  1
   O  O28  1  0.336366  0.672731  0.260459  0  .  1
   O  O29  1  0.906108  0.812216  0.556822  0  .  1
   O  O30  1  0.386918  0.773835  0.855602  0  .  1
   O  O31  1  0.194213  0.388425  0.033422  0  .  1
 
