#\#CIF1.1
##########################################################################
#               Crystallographic Information Format file 
#               Produced by PyCifRW module
# 
#  This is a CIF file.  CIF has been adopted by the International
#  Union of Crystallography as the standard for data archiving and 
#  transmission.
#
#  For information on this file format, follow the CIF links at
#  http://www.iucr.org
##########################################################################

data_K3(Cu4S3)2
_symmetry_space_group_name_H-M          'P 1'
_cell_length_a                          3.85599007
_cell_length_b                          8.87928530245
_cell_length_c                          9.87058664812
_cell_angle_alpha                       106.112855247
_cell_angle_beta                        90.0
_cell_angle_gamma                       102.540756595
_chemical_name_systematic               'Generated by pymatgen'
_symmetry_Int_Tables_number             1
_chemical_formula_structural            K3(Cu4S3)2
_chemical_formula_sum                   'K3 Cu8 S6'
_cell_volume                            316.276365713
_cell_formula_units_Z                   1
loop_
  _symmetry_equiv_pos_site_id
  _symmetry_equiv_pos_as_xyz
   1  'x, y, z'
 
loop_
  _atom_site_type_symbol
  _atom_site_label
  _atom_site_symmetry_multiplicity
  _atom_site_fract_x
  _atom_site_fract_y
  _atom_site_fract_z
  _atom_site_attached_hydrogens
  _atom_site_B_iso_or_equiv
  _atom_site_occupancy
   S  S1  1  0.652942  0.305885  0.653191  0  .  1
   S  S2  1  0.161041  0.322083  0.023714  0  .  1
   S  S3  1  0.838959  0.677917  0.976286  0  .  1
   S  S4  1  0.347058  0.694115  0.346809  0  .  1
   S  S5  1  0.955638  0.911277  0.703491  0  .  1
   S  S6  1  0.044362  0.088723  0.296509  0  .  1
   K  K7  1  0.306895  0.613790  0.705072  0  .  1
   K  K8  1  0.693105  0.386210  0.294928  0  .  1
   K  K9  1  0.500000  0.000000  0.000000  0  .  1
   Cu  Cu10  1  0.486230  0.972461  0.359852  0  .  1
   Cu  Cu11  1  0.513770  0.027539  0.640148  0  .  1
   Cu  Cu12  1  0.303861  0.607721  0.087156  0  .  1
   Cu  Cu13  1  0.090061  0.180121  0.535668  0  .  1
   Cu  Cu14  1  0.909939  0.819879  0.464332  0  .  1
   Cu  Cu15  1  0.092731  0.185462  0.797060  0  .  1
   Cu  Cu16  1  0.907269  0.814538  0.202940  0  .  1
   Cu  Cu17  1  0.696139  0.392279  0.912844  0  .  1
 
