#\#CIF1.1
##########################################################################
#               Crystallographic Information Format file 
#               Produced by PyCifRW module
# 
#  This is a CIF file.  CIF has been adopted by the International
#  Union of Crystallography as the standard for data archiving and 
#  transmission.
#
#  For information on this file format, follow the CIF links at
#  http://www.iucr.org
##########################################################################

data_K3(NiO2)2
_symmetry_space_group_name_H-M          'P 1'
_cell_length_a                          5.49661960061
_cell_length_b                          5.49661959559
_cell_length_c                          10.70782262
_cell_angle_alpha                       90.0
_cell_angle_beta                        90.0
_cell_angle_gamma                       112.291114993
_chemical_name_systematic               'Generated by pymatgen'
_symmetry_Int_Tables_number             1
_chemical_formula_structural            K3(NiO2)2
_chemical_formula_sum                   'K6 Ni4 O8'
_cell_volume                            299.336952745
_cell_formula_units_Z                   2
loop_
  _symmetry_equiv_pos_site_id
  _symmetry_equiv_pos_as_xyz
   1  'x, y, z'
 
loop_
  _atom_site_type_symbol
  _atom_site_label
  _atom_site_symmetry_multiplicity
  _atom_site_fract_x
  _atom_site_fract_y
  _atom_site_fract_z
  _atom_site_attached_hydrogens
  _atom_site_B_iso_or_equiv
  _atom_site_occupancy
   O  O1  1  0.864521  0.731941  0.615572  0  .  1
   O  O2  1  0.864521  0.731941  0.884429  0  .  1
   O  O3  1  0.268059  0.135479  0.615572  0  .  1
   O  O4  1  0.731941  0.864522  0.115571  0  .  1
   O  O5  1  0.135478  0.268059  0.384429  0  .  1
   O  O6  1  0.268059  0.135479  0.884429  0  .  1
   O  O7  1  0.731941  0.864522  0.384429  0  .  1
   O  O8  1  0.135478  0.268059  0.115571  0  .  1
   K  K9  1  0.297744  0.702258  0.250000  0  .  1
   K  K10  1  0.702257  0.297743  0.750000  0  .  1
   K  K11  1  0.350082  0.649919  0.572505  0  .  1
   K  K12  1  0.649919  0.350082  0.072505  0  .  1
   K  K13  1  0.649919  0.350082  0.427495  0  .  1
   K  K14  1  0.350082  0.649919  0.927495  0  .  1
   Ni  Ni15  1  0.065889  0.934111  0.750000  0  .  1
   Ni  Ni16  1  0.000000  0.000000  0.500000  0  .  1
   Ni  Ni17  1  0.000000  0.000000  0.000000  0  .  1
   Ni  Ni18  1  0.934111  0.065888  0.250000  0  .  1
 
