#\#CIF1.1
##########################################################################
#               Crystallographic Information Format file 
#               Produced by PyCifRW module
# 
#  This is a CIF file.  CIF has been adopted by the International
#  Union of Crystallography as the standard for data archiving and 
#  transmission.
#
#  For information on this file format, follow the CIF links at
#  http://www.iucr.org
##########################################################################

data_K3Cu5O4
_symmetry_space_group_name_H-M          'P 1'
_cell_length_a                          7.3242079
_cell_length_b                          9.54726250425
_cell_length_c                          14.0714124571
_cell_angle_alpha                       106.905679986
_cell_angle_beta                        90.0
_cell_angle_gamma                       90.0
_chemical_name_systematic               'Generated by pymatgen'
_symmetry_Int_Tables_number             1
_chemical_formula_structural            K3Cu5O4
_chemical_formula_sum                   'K12 Cu20 O16'
_cell_volume                            941.437448622
_cell_formula_units_Z                   4
loop_
  _symmetry_equiv_pos_site_id
  _symmetry_equiv_pos_as_xyz
   1  'x, y, z'
 
loop_
  _atom_site_type_symbol
  _atom_site_label
  _atom_site_symmetry_multiplicity
  _atom_site_fract_x
  _atom_site_fract_y
  _atom_site_fract_z
  _atom_site_attached_hydrogens
  _atom_site_B_iso_or_equiv
  _atom_site_occupancy
   O  O1  1  0.567396  0.612859  0.402192  0  .  1
   O  O2  1  0.453563  0.483637  0.871139  0  .  1
   O  O3  1  0.046437  0.483637  0.371139  0  .  1
   O  O4  1  0.953563  0.516363  0.628861  0  .  1
   O  O5  1  0.546437  0.516363  0.128861  0  .  1
   O  O6  1  0.152362  0.869096  0.617258  0  .  1
   O  O7  1  0.652362  0.130904  0.882742  0  .  1
   O  O8  1  0.847638  0.130904  0.382742  0  .  1
   O  O9  1  0.347638  0.869096  0.117258  0  .  1
   O  O10  1  0.678770  0.996921  0.608431  0  .  1
   O  O11  1  0.178770  0.003079  0.891569  0  .  1
   O  O12  1  0.321230  0.003079  0.391569  0  .  1
   O  O13  1  0.067396  0.387141  0.097808  0  .  1
   O  O14  1  0.432604  0.387141  0.597808  0  .  1
   O  O15  1  0.932604  0.612859  0.902192  0  .  1
   O  O16  1  0.821230  0.996921  0.108431  0  .  1
   K  K17  1  0.418154  0.326895  0.395763  0  .  1
   K  K18  1  0.918154  0.673105  0.104237  0  .  1
   K  K19  1  0.581846  0.673105  0.604237  0  .  1
   K  K20  1  0.081846  0.326895  0.895763  0  .  1
   K  K21  1  0.725811  0.267634  0.081916  0  .  1
   K  K22  1  0.225811  0.732366  0.418084  0  .  1
   K  K23  1  0.274189  0.732366  0.918084  0  .  1
   K  K24  1  0.774189  0.267634  0.581916  0  .  1
   K  K25  1  0.837931  0.900918  0.908459  0  .  1
   K  K26  1  0.162069  0.099082  0.091541  0  .  1
   K  K27  1  0.337931  0.099082  0.591541  0  .  1
   K  K28  1  0.662069  0.900918  0.408459  0  .  1
   Cu  Cu29  1  0.050093  0.695315  0.628156  0  .  1
   Cu  Cu30  1  0.550093  0.304685  0.871844  0  .  1
   Cu  Cu31  1  0.949907  0.304685  0.371844  0  .  1
   Cu  Cu32  1  0.449907  0.695315  0.128156  0  .  1
   Cu  Cu33  1  0.305871  0.449029  0.114651  0  .  1
   Cu  Cu34  1  0.805871  0.550971  0.385349  0  .  1
   Cu  Cu35  1  0.694129  0.550971  0.885349  0  .  1
   Cu  Cu36  1  0.334443  0.937295  0.255838  0  .  1
   Cu  Cu37  1  0.834443  0.062705  0.244162  0  .  1
   Cu  Cu38  1  0.665557  0.062705  0.744162  0  .  1
   Cu  Cu39  1  0.165557  0.937295  0.755838  0  .  1
   Cu  Cu40  1  0.551779  0.565222  0.265979  0  .  1
   Cu  Cu41  1  0.051779  0.434778  0.234021  0  .  1
   Cu  Cu42  1  0.448221  0.434778  0.734021  0  .  1
   Cu  Cu43  1  0.948221  0.565222  0.765979  0  .  1
   Cu  Cu44  1  0.586595  0.936882  0.116188  0  .  1
   Cu  Cu45  1  0.086595  0.063118  0.383812  0  .  1
   Cu  Cu46  1  0.413405  0.063118  0.883812  0  .  1
   Cu  Cu47  1  0.913405  0.936882  0.616188  0  .  1
   Cu  Cu48  1  0.194129  0.449029  0.614651  0  .  1
 
