#\#CIF1.1
##########################################################################
#               Crystallographic Information Format file 
#               Produced by PyCifRW module
# 
#  This is a CIF file.  CIF has been adopted by the International
#  Union of Crystallography as the standard for data archiving and 
#  transmission.
#
#  For information on this file format, follow the CIF links at
#  http://www.iucr.org
##########################################################################

data_K3Cu11Te16
_symmetry_space_group_name_H-M          'P 1'
_cell_length_a                          6.97973739164
_cell_length_b                          15.8707428153
_cell_length_c                          15.8707428893
_cell_angle_alpha                       76.8206554514
_cell_angle_beta                        77.297239922
_cell_angle_gamma                       77.2972387538
_chemical_name_systematic               'Generated by pymatgen'
_symmetry_Int_Tables_number             1
_chemical_formula_structural            K3Cu11Te16
_chemical_formula_sum                   'K6 Cu22 Te32'
_cell_volume                            1642.97133868
_cell_formula_units_Z                   2
loop_
  _symmetry_equiv_pos_site_id
  _symmetry_equiv_pos_as_xyz
   1  'x, y, z'
 
loop_
  _atom_site_type_symbol
  _atom_site_label
  _atom_site_symmetry_multiplicity
  _atom_site_fract_x
  _atom_site_fract_y
  _atom_site_fract_z
  _atom_site_attached_hydrogens
  _atom_site_B_iso_or_equiv
  _atom_site_occupancy
   K  K1  1  0.822945  0.097759  0.902241  0  .  1
   K  K2  1  0.822945  0.402241  0.597759  0  .  1
   K  K3  1  0.500000  0.500000  0.000000  0  .  1
   K  K4  1  0.177055  0.902241  0.097759  0  .  1
   K  K5  1  0.000000  0.000000  0.500000  0  .  1
   K  K6  1  0.177055  0.597759  0.402241  0  .  1
   Cu  Cu7  1  0.385984  0.023620  0.297934  0  .  1
   Cu  Cu8  1  0.707538  0.702066  0.976380  0  .  1
   Cu  Cu9  1  0.904477  0.512566  0.801725  0  .  1
   Cu  Cu10  1  0.385984  0.797934  0.523620  0  .  1
   Cu  Cu11  1  0.898818  0.750000  0.250000  0  .  1
   Cu  Cu12  1  0.095523  0.698275  0.987434  0  .  1
   Cu  Cu13  1  0.095523  0.487434  0.198275  0  .  1
   Cu  Cu14  1  0.218768  0.987434  0.698275  0  .  1
   Cu  Cu15  1  0.614016  0.202066  0.476380  0  .  1
   Cu  Cu16  1  0.781232  0.801725  0.512566  0  .  1
   Cu  Cu17  1  0.292462  0.523620  0.797934  0  .  1
   Cu  Cu18  1  0.292462  0.297934  0.023620  0  .  1
   Cu  Cu19  1  0.101182  0.250000  0.750000  0  .  1
   Cu  Cu20  1  0.218768  0.198275  0.487434  0  .  1
   Cu  Cu21  1  0.356294  0.643706  0.643706  0  .  1
   Cu  Cu22  1  0.781232  0.012566  0.301725  0  .  1
   Cu  Cu23  1  0.614016  0.976380  0.702066  0  .  1
   Cu  Cu24  1  0.643706  0.856294  0.856294  0  .  1
   Cu  Cu25  1  0.904477  0.301725  0.012566  0  .  1
   Cu  Cu26  1  0.707538  0.476380  0.202066  0  .  1
   Cu  Cu27  1  0.356294  0.143706  0.143706  0  .  1
   Cu  Cu28  1  0.643706  0.356294  0.356294  0  .  1
   Te  Te29  1  0.045263  0.764340  0.616344  0  .  1
   Te  Te30  1  0.574054  0.616344  0.764340  0  .  1
   Te  Te31  1  0.321187  0.348329  0.473674  0  .  1
   Te  Te32  1  0.349803  0.858307  0.358307  0  .  1
   Te  Te33  1  0.678813  0.026326  0.151671  0  .  1
   Te  Te34  1  0.353458  0.152355  0.847645  0  .  1
   Te  Te35  1  0.566417  0.641693  0.141693  0  .  1
   Te  Te36  1  0.678813  0.651671  0.526326  0  .  1
   Te  Te37  1  0.650197  0.141693  0.641693  0  .  1
   Te  Te38  1  0.425946  0.735660  0.883656  0  .  1
   Te  Te39  1  0.433583  0.358307  0.858307  0  .  1
   Te  Te40  1  0.045263  0.116344  0.264340  0  .  1
   Te  Te41  1  0.054261  0.149707  0.649707  0  .  1
   Te  Te42  1  0.856810  0.848329  0.973674  0  .  1
   Te  Te43  1  0.646542  0.652355  0.347645  0  .  1
   Te  Te44  1  0.500000  0.074318  0.425682  0  .  1
   Te  Te45  1  0.945739  0.850293  0.350293  0  .  1
   Te  Te46  1  0.500000  0.925682  0.574318  0  .  1
   Te  Te47  1  0.425946  0.383656  0.235660  0  .  1
   Te  Te48  1  0.143190  0.151671  0.026326  0  .  1
   Te  Te49  1  0.353458  0.347645  0.652355  0  .  1
   Te  Te50  1  0.646542  0.847645  0.152355  0  .  1
   Te  Te51  1  0.146324  0.649707  0.149707  0  .  1
   Te  Te52  1  0.000000  0.574318  0.925682  0  .  1
   Te  Te53  1  0.321187  0.973674  0.848329  0  .  1
   Te  Te54  1  0.853676  0.350293  0.850293  0  .  1
   Te  Te55  1  0.856810  0.473674  0.348329  0  .  1
   Te  Te56  1  0.143190  0.526326  0.651671  0  .  1
   Te  Te57  1  0.954737  0.883656  0.735660  0  .  1
   Te  Te58  1  0.954737  0.235660  0.383656  0  .  1
   Te  Te59  1  1.000000  0.425682  0.074318  0  .  1
   Te  Te60  1  0.574054  0.264340  0.116344  0  .  1
 
