#\#CIF1.1
##########################################################################
#               Crystallographic Information Format file 
#               Produced by PyCifRW module
# 
#  This is a CIF file.  CIF has been adopted by the International
#  Union of Crystallography as the standard for data archiving and 
#  transmission.
#
#  For information on this file format, follow the CIF links at
#  http://www.iucr.org
##########################################################################

data_K3Cu3P2
_symmetry_space_group_name_H-M          'P 1'
_cell_length_a                          7.42981492347
_cell_length_b                          7.42981492492
_cell_length_c                          7.42981492154
_cell_angle_alpha                       45.3223931244
_cell_angle_beta                        45.3223931229
_cell_angle_gamma                       45.3223930978
_chemical_name_systematic               'Generated by pymatgen'
_symmetry_Int_Tables_number             1
_chemical_formula_structural            K3Cu3P2
_chemical_formula_sum                   'K3 Cu3 P2'
_cell_volume                            188.881074787
_cell_formula_units_Z                   1
loop_
  _symmetry_equiv_pos_site_id
  _symmetry_equiv_pos_as_xyz
   1  'x, y, z'
 
loop_
  _atom_site_type_symbol
  _atom_site_label
  _atom_site_symmetry_multiplicity
  _atom_site_fract_x
  _atom_site_fract_y
  _atom_site_fract_z
  _atom_site_attached_hydrogens
  _atom_site_B_iso_or_equiv
  _atom_site_occupancy
   P  P1  1  0.256428  0.256428  0.256428  0  .  1
   P  P2  1  0.743572  0.743572  0.743572  0  .  1
   K  K3  1  0.908084  0.908084  0.908084  0  .  1
   K  K4  1  0.500000  0.500000  0.500000  0  .  1
   K  K5  1  0.091916  0.091916  0.091916  0  .  1
   Cu  Cu6  1  0.500000  0.000000  0.500000  0  .  1
   Cu  Cu7  1  0.500000  0.500000  0.000000  0  .  1
   Cu  Cu8  1  0.000000  0.500000  0.500000  0  .  1
 
