#\#CIF1.1
##########################################################################
#               Crystallographic Information Format file 
#               Produced by PyCifRW module
# 
#  This is a CIF file.  CIF has been adopted by the International
#  Union of Crystallography as the standard for data archiving and 
#  transmission.
#
#  For information on this file format, follow the CIF links at
#  http://www.iucr.org
##########################################################################

data_K3FeO4
_symmetry_space_group_name_H-M          'P 1'
_cell_length_a                          7.76459717
_cell_length_b                          7.94292386
_cell_length_c                          9.25510981
_cell_angle_alpha                       90.0
_cell_angle_beta                        90.0
_cell_angle_gamma                       90.0
_chemical_name_systematic               'Generated by pymatgen'
_symmetry_Int_Tables_number             1
_chemical_formula_structural            K3FeO4
_chemical_formula_sum                   'K12 Fe4 O16'
_cell_volume                            570.795978554
_cell_formula_units_Z                   4
loop_
  _symmetry_equiv_pos_site_id
  _symmetry_equiv_pos_as_xyz
   1  'x, y, z'
 
loop_
  _atom_site_type_symbol
  _atom_site_label
  _atom_site_symmetry_multiplicity
  _atom_site_fract_x
  _atom_site_fract_y
  _atom_site_fract_z
  _atom_site_attached_hydrogens
  _atom_site_B_iso_or_equiv
  _atom_site_occupancy
   O  O1  1  0.286552  0.225607  0.250000  0  .  1
   O  O2  1  0.786552  0.274393  0.250000  0  .  1
   O  O3  1  0.213448  0.725607  0.750000  0  .  1
   O  O4  1  0.713449  0.774393  0.750000  0  .  1
   O  O5  1  0.978901  0.579294  0.250000  0  .  1
   O  O6  1  0.478901  0.920706  0.250000  0  .  1
   O  O7  1  0.521099  0.079295  0.750000  0  .  1
   O  O8  1  0.021099  0.420706  0.750000  0  .  1
   O  O9  1  0.816495  0.042947  0.580953  0  .  1
   O  O10  1  0.316496  0.457053  0.919047  0  .  1
   O  O11  1  0.683505  0.542947  0.419048  0  .  1
   O  O12  1  0.183504  0.957053  0.080953  0  .  1
   O  O13  1  0.183504  0.957053  0.419048  0  .  1
   O  O14  1  0.683505  0.542947  0.080953  0  .  1
   O  O15  1  0.316496  0.457053  0.580953  0  .  1
   O  O16  1  0.816495  0.042947  0.919047  0  .  1
   K  K17  1  0.328877  0.557839  0.250000  0  .  1
   K  K18  1  0.828877  0.942161  0.250000  0  .  1
   K  K19  1  0.171122  0.057838  0.750000  0  .  1
   K  K20  1  0.671122  0.442162  0.750000  0  .  1
   K  K21  1  0.963148  0.720972  0.963468  0  .  1
   K  K22  1  0.463147  0.779029  0.536532  0  .  1
   K  K23  1  0.536853  0.220972  0.036532  0  .  1
   K  K24  1  0.036853  0.279029  0.463468  0  .  1
   K  K25  1  0.963148  0.720972  0.536532  0  .  1
   K  K26  1  0.536853  0.220972  0.463468  0  .  1
   K  K27  1  0.463147  0.779029  0.963468  0  .  1
   K  K28  1  0.036853  0.279029  0.036532  0  .  1
   Fe  Fe29  1  0.273984  0.007802  0.250000  0  .  1
   Fe  Fe30  1  0.773985  0.492197  0.250000  0  .  1
   Fe  Fe31  1  0.226015  0.507802  0.750000  0  .  1
   Fe  Fe32  1  0.726015  0.992198  0.750000  0  .  1
 
