#\#CIF1.1
##########################################################################
#               Crystallographic Information Format file 
#               Produced by PyCifRW module
# 
#  This is a CIF file.  CIF has been adopted by the International
#  Union of Crystallography as the standard for data archiving and 
#  transmission.
#
#  For information on this file format, follow the CIF links at
#  http://www.iucr.org
##########################################################################

data_K3FeSe3
_symmetry_space_group_name_H-M          'P 1'
_cell_length_a                          8.11081194246
_cell_length_b                          8.49409960586
_cell_length_c                          13.02873534
_cell_angle_alpha                       90.0
_cell_angle_beta                        90.0
_cell_angle_gamma                       101.743127155
_chemical_name_systematic               'Generated by pymatgen'
_symmetry_Int_Tables_number             1
_chemical_formula_structural            K3FeSe3
_chemical_formula_sum                   'K12 Fe4 Se12'
_cell_volume                            878.815361027
_cell_formula_units_Z                   4
loop_
  _symmetry_equiv_pos_site_id
  _symmetry_equiv_pos_as_xyz
   1  'x, y, z'
 
loop_
  _atom_site_type_symbol
  _atom_site_label
  _atom_site_symmetry_multiplicity
  _atom_site_fract_x
  _atom_site_fract_y
  _atom_site_fract_z
  _atom_site_attached_hydrogens
  _atom_site_B_iso_or_equiv
  _atom_site_occupancy
   K  K1  1  0.139820  0.522451  0.371640  0  .  1
   K  K2  1  0.360180  0.977549  0.871640  0  .  1
   K  K3  1  0.860180  0.477549  0.628360  0  .  1
   K  K4  1  0.639820  0.022451  0.128360  0  .  1
   K  K5  1  0.288975  0.417396  0.809139  0  .  1
   K  K6  1  0.211025  0.082604  0.309139  0  .  1
   K  K7  1  0.711025  0.582604  0.190861  0  .  1
   K  K8  1  0.788975  0.917396  0.690861  0  .  1
   K  K9  1  0.254847  0.602208  0.079498  0  .  1
   K  K10  1  0.245153  0.897792  0.579498  0  .  1
   K  K11  1  0.745153  0.397792  0.920502  0  .  1
   K  K12  1  0.754847  0.102208  0.420502  0  .  1
   Fe  Fe13  1  0.090271  0.150160  0.056418  0  .  1
   Fe  Fe14  1  0.409729  0.349840  0.556418  0  .  1
   Fe  Fe15  1  0.909729  0.849840  0.943582  0  .  1
   Fe  Fe16  1  0.590271  0.650160  0.443582  0  .  1
   Se  Se17  1  0.883836  0.758714  0.452144  0  .  1
   Se  Se18  1  0.616164  0.741286  0.952144  0  .  1
   Se  Se19  1  0.116164  0.241286  0.547856  0  .  1
   Se  Se20  1  0.383836  0.258714  0.047856  0  .  1
   Se  Se21  1  0.458620  0.806705  0.327896  0  .  1
   Se  Se22  1  0.041380  0.693295  0.827896  0  .  1
   Se  Se23  1  0.541380  0.193295  0.672104  0  .  1
   Se  Se24  1  0.958620  0.306705  0.172104  0  .  1
   Se  Se25  1  0.470219  0.625550  0.612249  0  .  1
   Se  Se26  1  0.029781  0.874450  0.112249  0  .  1
   Se  Se27  1  0.529781  0.374450  0.387751  0  .  1
   Se  Se28  1  0.970219  0.125550  0.887751  0  .  1
 
