#\#CIF1.1
##########################################################################
#               Crystallographic Information Format file 
#               Produced by PyCifRW module
# 
#  This is a CIF file.  CIF has been adopted by the International
#  Union of Crystallography as the standard for data archiving and 
#  transmission.
#
#  For information on this file format, follow the CIF links at
#  http://www.iucr.org
##########################################################################

data_K3MnO4
_symmetry_space_group_name_H-M          'P 1'
_cell_length_a                          5.85625765516
_cell_length_b                          5.85625765088
_cell_length_c                          5.85625765356
_cell_angle_alpha                       105.413646837
_cell_angle_beta                        111.537316729
_cell_angle_gamma                       111.53731673
_chemical_name_systematic               'Generated by pymatgen'
_symmetry_Int_Tables_number             1
_chemical_formula_structural            K3MnO4
_chemical_formula_sum                   'K3 Mn1 O4'
_cell_volume                            154.034192403
_cell_formula_units_Z                   1
loop_
  _symmetry_equiv_pos_site_id
  _symmetry_equiv_pos_as_xyz
   1  'x, y, z'
 
loop_
  _atom_site_type_symbol
  _atom_site_label
  _atom_site_symmetry_multiplicity
  _atom_site_fract_x
  _atom_site_fract_y
  _atom_site_fract_z
  _atom_site_attached_hydrogens
  _atom_site_B_iso_or_equiv
  _atom_site_occupancy
   O  O1  1  0.696461  0.988056  0.988056  0  .  1
   O  O2  1  0.000000  0.011944  0.708405  0  .  1
   O  O3  1  1.000000  0.708405  0.011944  0  .  1
   O  O4  1  0.303539  0.291595  0.291595  0  .  1
   K  K5  1  0.500000  0.750000  0.250000  0  .  1
   K  K6  1  0.500000  0.250000  0.750000  0  .  1
   K  K7  1  0.000000  0.500000  0.500000  0  .  1
   Mn  Mn8  1  0.000000  0.000000  0.000000  0  .  1
 
