#\#CIF1.1
##########################################################################
#               Crystallographic Information Format file 
#               Produced by PyCifRW module
# 
#  This is a CIF file.  CIF has been adopted by the International
#  Union of Crystallography as the standard for data archiving and 
#  transmission.
#
#  For information on this file format, follow the CIF links at
#  http://www.iucr.org
##########################################################################

data_K3MnO3
_symmetry_space_group_name_H-M          'P 1'
_cell_length_a                          6.74221932296
_cell_length_b                          6.83100515911
_cell_length_c                          11.68965535
_cell_angle_alpha                       90.0
_cell_angle_beta                        90.0
_cell_angle_gamma                       95.7047547506
_chemical_name_systematic               'Generated by pymatgen'
_symmetry_Int_Tables_number             1
_chemical_formula_structural            K3MnO3
_chemical_formula_sum                   'K12 Mn4 O12'
_cell_volume                            535.713921451
_cell_formula_units_Z                   4
loop_
  _symmetry_equiv_pos_site_id
  _symmetry_equiv_pos_as_xyz
   1  'x, y, z'
 
loop_
  _atom_site_type_symbol
  _atom_site_label
  _atom_site_symmetry_multiplicity
  _atom_site_fract_x
  _atom_site_fract_y
  _atom_site_fract_z
  _atom_site_attached_hydrogens
  _atom_site_B_iso_or_equiv
  _atom_site_occupancy
   K  K1  1  0.653654  0.858273  0.990113  0  .  1
   K  K2  1  0.346346  0.641727  0.490113  0  .  1
   K  K3  1  0.346346  0.141727  0.009887  0  .  1
   K  K4  1  0.653654  0.358273  0.509887  0  .  1
   K  K5  1  0.527175  0.507383  0.211717  0  .  1
   K  K6  1  0.472825  0.992617  0.711717  0  .  1
   K  K7  1  0.472825  0.492617  0.788283  0  .  1
   K  K8  1  0.527175  0.007383  0.288283  0  .  1
   K  K9  1  0.019520  0.578769  0.726340  0  .  1
   K  K10  1  0.980480  0.921231  0.226340  0  .  1
   K  K11  1  0.980480  0.421231  0.273660  0  .  1
   K  K12  1  0.019520  0.078769  0.773660  0  .  1
   Mn  Mn13  1  0.840430  0.339589  0.996086  0  .  1
   Mn  Mn14  1  0.159570  0.160411  0.496086  0  .  1
   Mn  Mn15  1  0.159570  0.660411  0.003914  0  .  1
   Mn  Mn16  1  0.840430  0.839589  0.503914  0  .  1
   O  O17  1  0.107379  0.402380  0.925711  0  .  1
   O  O18  1  0.892621  0.097620  0.425711  0  .  1
   O  O19  1  0.892621  0.597620  0.074289  0  .  1
   O  O20  1  0.107379  0.902380  0.574289  0  .  1
   O  O21  1  0.699212  0.215391  0.871628  0  .  1
   O  O22  1  0.300788  0.284609  0.371628  0  .  1
   O  O23  1  0.300788  0.784609  0.128372  0  .  1
   O  O24  1  0.699212  0.715391  0.628372  0  .  1
   O  O25  1  0.278612  0.806088  0.880328  0  .  1
   O  O26  1  0.721388  0.693912  0.380328  0  .  1
   O  O27  1  0.721388  0.193912  0.119672  0  .  1
   O  O28  1  0.278612  0.306088  0.619672  0  .  1
 
