#\#CIF1.1
##########################################################################
#               Crystallographic Information Format file 
#               Produced by PyCifRW module
# 
#  This is a CIF file.  CIF has been adopted by the International
#  Union of Crystallography as the standard for data archiving and 
#  transmission.
#
#  For information on this file format, follow the CIF links at
#  http://www.iucr.org
##########################################################################

data_K4Co2O5
_symmetry_space_group_name_H-M          'P 1'
_cell_length_a                          7.10215055203
_cell_length_b                          7.10252837219
_cell_length_c                          10.40151423
_cell_angle_alpha                       90.0
_cell_angle_beta                        90.0
_cell_angle_gamma                       90.0027932562
_chemical_name_systematic               'Generated by pymatgen'
_symmetry_Int_Tables_number             1
_chemical_formula_structural            K4Co2O5
_chemical_formula_sum                   'K8 Co4 O10'
_cell_volume                            524.685930336
_cell_formula_units_Z                   2
loop_
  _symmetry_equiv_pos_site_id
  _symmetry_equiv_pos_as_xyz
   1  'x, y, z'
 
loop_
  _atom_site_type_symbol
  _atom_site_label
  _atom_site_symmetry_multiplicity
  _atom_site_fract_x
  _atom_site_fract_y
  _atom_site_fract_z
  _atom_site_attached_hydrogens
  _atom_site_B_iso_or_equiv
  _atom_site_occupancy
   K  K1  1  0.000662  0.001225  0.268300  0  .  1
   K  K2  1  0.001014  0.500302  0.250035  0  .  1
   K  K3  1  0.000662  0.001225  0.731700  0  .  1
   K  K4  1  0.001014  0.500302  0.749965  0  .  1
   K  K5  1  0.500731  0.498802  0.231703  0  .  1
   K  K6  1  0.500731  0.498802  0.768297  0  .  1
   K  K7  1  0.500965  0.999691  0.249959  0  .  1
   K  K8  1  0.500965  0.999691  0.750041  0  .  1
   Co  Co9  1  0.176022  0.824171  0.000000  0  .  1
   Co  Co10  1  0.318185  0.317835  0.500000  0  .  1
   Co  Co11  1  0.676039  0.675807  0.500000  0  .  1
   Co  Co12  1  0.818156  0.182160  0.000000  0  .  1
   O  O13  1  0.998365  0.001393  0.000000  0  .  1
   O  O14  1  0.258528  0.257870  0.344431  0  .  1
   O  O15  1  0.258528  0.257870  0.655569  0  .  1
   O  O16  1  0.243506  0.757072  0.846157  0  .  1
   O  O17  1  0.243506  0.757072  0.153843  0  .  1
   O  O18  1  0.498428  0.498566  0.500000  0  .  1
   O  O19  1  0.758504  0.242155  0.155575  0  .  1
   O  O20  1  0.758504  0.242155  0.844425  0  .  1
   O  O21  1  0.743513  0.742936  0.653845  0  .  1
   O  O22  1  0.743513  0.742936  0.346155  0  .  1
 
