#\#CIF1.1
##########################################################################
#               Crystallographic Information Format file 
#               Produced by PyCifRW module
# 
#  This is a CIF file.  CIF has been adopted by the International
#  Union of Crystallography as the standard for data archiving and 
#  transmission.
#
#  For information on this file format, follow the CIF links at
#  http://www.iucr.org
##########################################################################

data_K4Cu8Te11
_symmetry_space_group_name_H-M          'P 1'
_cell_length_a                          6.84468817643
_cell_length_b                          12.6583841479
_cell_length_c                          15.8197259331
_cell_angle_alpha                       80.7740063038
_cell_angle_beta                        77.5061999455
_cell_angle_gamma                       74.3142001652
_chemical_name_systematic               'Generated by pymatgen'
_symmetry_Int_Tables_number             1
_chemical_formula_structural            K4Cu8Te11
_chemical_formula_sum                   'K8 Cu16 Te22'
_cell_volume                            1280.78487572
_cell_formula_units_Z                   2
loop_
  _symmetry_equiv_pos_site_id
  _symmetry_equiv_pos_as_xyz
   1  'x, y, z'
 
loop_
  _atom_site_type_symbol
  _atom_site_label
  _atom_site_symmetry_multiplicity
  _atom_site_fract_x
  _atom_site_fract_y
  _atom_site_fract_z
  _atom_site_attached_hydrogens
  _atom_site_B_iso_or_equiv
  _atom_site_occupancy
   K  K1  1  0.750044  0.587904  0.912007  0  .  1
   K  K2  1  0.249956  0.412096  0.087993  0  .  1
   K  K3  1  0.854124  0.764566  0.527186  0  .  1
   K  K4  1  0.145876  0.235434  0.472814  0  .  1
   K  K5  1  0.374441  0.583134  0.667984  0  .  1
   K  K6  1  0.625559  0.416866  0.332016  0  .  1
   K  K7  1  0.563755  0.094992  0.777498  0  .  1
   K  K8  1  0.436245  0.905007  0.222502  0  .  1
   Cu  Cu9  1  0.679772  0.138295  0.117820  0  .  1
   Cu  Cu10  1  0.935887  0.861705  0.882180  0  .  1
   Cu  Cu11  1  0.320228  0.861705  0.882180  0  .  1
   Cu  Cu12  1  0.064113  0.138295  0.117820  0  .  1
   Cu  Cu13  1  0.886113  0.784960  0.057576  0  .  1
   Cu  Cu14  1  0.728649  0.215039  0.942424  0  .  1
   Cu  Cu15  1  0.113887  0.215039  0.942424  0  .  1
   Cu  Cu16  1  0.271351  0.784960  0.057576  0  .  1
   Cu  Cu17  1  0.985756  0.020434  0.387711  0  .  1
   Cu  Cu18  1  0.393902  0.979566  0.612289  0  .  1
   Cu  Cu19  1  0.014244  0.979566  0.612289  0  .  1
   Cu  Cu20  1  0.606098  0.020434  0.387711  0  .  1
   Cu  Cu21  1  0.789365  0.677906  0.336462  0  .  1
   Cu  Cu22  1  0.803733  0.322094  0.663538  0  .  1
   Cu  Cu23  1  0.196267  0.677906  0.336462  0  .  1
   Cu  Cu24  1  0.210635  0.322094  0.663538  0  .  1
   Te  Te25  1  0.812506  0.318224  0.056765  0  .  1
   Te  Te26  1  0.187494  0.681776  0.943235  0  .  1
   Te  Te27  1  0.957420  0.490557  0.594603  0  .  1
   Te  Te28  1  0.042580  0.509443  0.405397  0  .  1
   Te  Te29  1  0.062761  0.180449  0.273651  0  .  1
   Te  Te30  1  0.516861  0.819551  0.726349  0  .  1
   Te  Te31  1  0.937239  0.819551  0.726349  0  .  1
   Te  Te32  1  0.483139  0.180449  0.273651  0  .  1
   Te  Te33  1  0.698773  0.070608  0.531846  0  .  1
   Te  Te34  1  0.301227  0.929392  0.468154  0  .  1
   Te  Te35  1  0.567914  0.302247  0.561924  0  .  1
   Te  Te36  1  0.432086  0.697753  0.438076  0  .  1
   Te  Te37  1  0.802555  0.631961  0.180855  0  .  1
   Te  Te38  1  0.615371  0.368039  0.819145  0  .  1
   Te  Te39  1  0.197445  0.368039  0.819145  0  .  1
   Te  Te40  1  0.384629  0.631961  0.180855  0  .  1
   Te  Te41  1  0.432889  0.115184  0.019037  0  .  1
   Te  Te42  1  0.567111  0.884816  0.980963  0  .  1
   Te  Te43  1  0.090294  0.130801  0.688611  0  .  1
   Te  Te44  1  0.909706  0.869199  0.311389  0  .  1
   Te  Te45  1  0.036093  0.052725  0.875088  0  .  1
   Te  Te46  1  0.963907  0.947275  0.124912  0  .  1
 
