#\#CIF1.1
##########################################################################
#               Crystallographic Information Format file 
#               Produced by PyCifRW module
# 
#  This is a CIF file.  CIF has been adopted by the International
#  Union of Crystallography as the standard for data archiving and 
#  transmission.
#
#  For information on this file format, follow the CIF links at
#  http://www.iucr.org
##########################################################################

data_K4Fe2O5
_symmetry_space_group_name_H-M          'P 1'
_cell_length_a                          6.03190448
_cell_length_b                          6.52259166671
_cell_length_c                          10.1555924517
_cell_angle_alpha                       103.663002433
_cell_angle_beta                        90.0
_cell_angle_gamma                       90.0
_chemical_name_systematic               'Generated by pymatgen'
_symmetry_Int_Tables_number             1
_chemical_formula_structural            K4Fe2O5
_chemical_formula_sum                   'K8 Fe4 O10'
_cell_volume                            388.251319903
_cell_formula_units_Z                   2
loop_
  _symmetry_equiv_pos_site_id
  _symmetry_equiv_pos_as_xyz
   1  'x, y, z'
 
loop_
  _atom_site_type_symbol
  _atom_site_label
  _atom_site_symmetry_multiplicity
  _atom_site_fract_x
  _atom_site_fract_y
  _atom_site_fract_z
  _atom_site_attached_hydrogens
  _atom_site_B_iso_or_equiv
  _atom_site_occupancy
   K  K1  1  0.878562  0.266880  0.517188  0  .  1
   K  K2  1  0.089831  0.096941  0.837947  0  .  1
   K  K3  1  0.121438  0.733120  0.482812  0  .  1
   K  K4  1  0.410169  0.096941  0.337947  0  .  1
   K  K5  1  0.910169  0.903059  0.162053  0  .  1
   K  K6  1  0.378562  0.733120  0.982812  0  .  1
   K  K7  1  0.621438  0.266880  0.017188  0  .  1
   K  K8  1  0.589831  0.903059  0.662053  0  .  1
   Fe  Fe9  1  0.114228  0.406982  0.155441  0  .  1
   Fe  Fe10  1  0.385772  0.406982  0.655441  0  .  1
   Fe  Fe11  1  0.614228  0.593018  0.344559  0  .  1
   Fe  Fe12  1  0.885772  0.593018  0.844559  0  .  1
   O  O13  1  0.146201  0.603113  0.729983  0  .  1
   O  O14  1  0.853799  0.396887  0.270017  0  .  1
   O  O15  1  0.265608  0.138510  0.598897  0  .  1
   O  O16  1  0.353799  0.603113  0.229983  0  .  1
   O  O17  1  0.765608  0.861490  0.901103  0  .  1
   O  O18  1  0.500000  0.500000  0.500000  0  .  1
   O  O19  1  0.734392  0.861490  0.401103  0  .  1
   O  O20  1  0.646201  0.396887  0.770017  0  .  1
   O  O21  1  0.000000  0.500000  0.000000  0  .  1
   O  O22  1  0.234392  0.138510  0.098897  0  .  1
 
