#\#CIF1.1
##########################################################################
#               Crystallographic Information Format file 
#               Produced by PyCifRW module
# 
#  This is a CIF file.  CIF has been adopted by the International
#  Union of Crystallography as the standard for data archiving and 
#  transmission.
#
#  For information on this file format, follow the CIF links at
#  http://www.iucr.org
##########################################################################

data_K4TiO4
_symmetry_space_group_name_H-M          'P 1'
_cell_length_a                          10.7499741238
_cell_length_b                          6.68765803
_cell_length_c                          10.7870226321
_cell_angle_alpha                       90.0
_cell_angle_beta                        111.769317668
_cell_angle_gamma                       90.0
_chemical_name_systematic               'Generated by pymatgen'
_symmetry_Int_Tables_number             1
_chemical_formula_structural            K4TiO4
_chemical_formula_sum                   'K16 Ti4 O16'
_cell_volume                            720.196975896
_cell_formula_units_Z                   4
loop_
  _symmetry_equiv_pos_site_id
  _symmetry_equiv_pos_as_xyz
   1  'x, y, z'
 
loop_
  _atom_site_type_symbol
  _atom_site_label
  _atom_site_symmetry_multiplicity
  _atom_site_fract_x
  _atom_site_fract_y
  _atom_site_fract_z
  _atom_site_attached_hydrogens
  _atom_site_B_iso_or_equiv
  _atom_site_occupancy
   K  K1  1  0.062502  0.408276  0.696616  0  .  1
   K  K2  1  0.158852  0.888707  0.583325  0  .  1
   K  K3  1  0.062502  0.091724  0.196616  0  .  1
   K  K4  1  0.369314  0.666573  0.890886  0  .  1
   K  K5  1  0.424835  0.185555  0.793062  0  .  1
   K  K6  1  0.158852  0.611293  0.083325  0  .  1
   K  K7  1  0.369314  0.833427  0.390886  0  .  1
   K  K8  1  0.575165  0.685554  0.706938  0  .  1
   K  K9  1  0.424835  0.314445  0.293062  0  .  1
   K  K10  1  0.630686  0.166573  0.609114  0  .  1
   K  K11  1  0.841148  0.388707  0.916675  0  .  1
   K  K12  1  0.575165  0.814446  0.206938  0  .  1
   K  K13  1  0.630686  0.333427  0.109114  0  .  1
   K  K14  1  0.937498  0.908276  0.803384  0  .  1
   K  K15  1  0.841148  0.111293  0.416675  0  .  1
   K  K16  1  0.937498  0.591724  0.303384  0  .  1
   Ti  Ti17  1  0.242390  0.128469  0.990237  0  .  1
   Ti  Ti18  1  0.242390  0.371531  0.490237  0  .  1
   Ti  Ti19  1  0.757610  0.628469  0.509763  0  .  1
   Ti  Ti20  1  0.757610  0.871531  0.009763  0  .  1
   O  O21  1  0.081171  0.240639  0.971346  0  .  1
   O  O22  1  0.219420  0.989456  0.835283  0  .  1
   O  O23  1  0.081171  0.259361  0.471346  0  .  1
   O  O24  1  0.306472  0.535335  0.640172  0  .  1
   O  O25  1  0.219420  0.510544  0.335282  0  .  1
   O  O26  1  0.365236  0.166633  0.513496  0  .  1
   O  O27  1  0.306472  0.964665  0.140172  0  .  1
   O  O28  1  0.634764  0.666633  0.986504  0  .  1
   O  O29  1  0.365236  0.333367  0.013496  0  .  1
   O  O30  1  0.693528  0.035335  0.859828  0  .  1
   O  O31  1  0.634764  0.833367  0.486504  0  .  1
   O  O32  1  0.780580  0.489456  0.664717  0  .  1
   O  O33  1  0.693528  0.464665  0.359828  0  .  1
   O  O34  1  0.918829  0.740639  0.528654  0  .  1
   O  O35  1  0.780580  0.010544  0.164717  0  .  1
   O  O36  1  0.918829  0.759361  0.028654  0  .  1
 
