#\#CIF1.1
##########################################################################
#               Crystallographic Information Format file 
#               Produced by PyCifRW module
# 
#  This is a CIF file.  CIF has been adopted by the International
#  Union of Crystallography as the standard for data archiving and 
#  transmission.
#
#  For information on this file format, follow the CIF links at
#  http://www.iucr.org
##########################################################################

data_K4V2O7
_symmetry_space_group_name_H-M          'P 1'
_cell_length_a                          6.13618831216
_cell_length_b                          6.13618847249
_cell_length_c                          7.37666686904
_cell_angle_alpha                       80.2546950658
_cell_angle_beta                        80.2546947682
_cell_angle_gamma                       62.2501737916
_chemical_name_systematic               'Generated by pymatgen'
_symmetry_Int_Tables_number             1
_chemical_formula_structural            K4V2O7
_chemical_formula_sum                   'K4 V2 O7'
_cell_volume                            240.954356151
_cell_formula_units_Z                   1
loop_
  _symmetry_equiv_pos_site_id
  _symmetry_equiv_pos_as_xyz
   1  'x, y, z'
 
loop_
  _atom_site_type_symbol
  _atom_site_label
  _atom_site_symmetry_multiplicity
  _atom_site_fract_x
  _atom_site_fract_y
  _atom_site_fract_z
  _atom_site_attached_hydrogens
  _atom_site_B_iso_or_equiv
  _atom_site_occupancy
   K  K1  1  0.679309  0.679309  0.298292  0  .  1
   K  K2  1  0.320691  0.320691  0.701708  0  .  1
   K  K3  1  0.000000  0.000000  0.500000  0  .  1
   K  K4  1  0.000000  0.000000  0.000000  0  .  1
   V  V5  1  0.635504  0.635504  0.798571  0  .  1
   V  V6  1  0.364496  0.364496  0.201429  0  .  1
   O  O7  1  0.784865  0.784865  0.859312  0  .  1
   O  O8  1  0.838648  0.394976  0.672898  0  .  1
   O  O9  1  0.215135  0.215135  0.140688  0  .  1
   O  O10  1  0.605024  0.161352  0.327102  0  .  1
   O  O11  1  0.394976  0.838648  0.672898  0  .  1
   O  O12  1  0.500000  0.500000  0.000000  0  .  1
   O  O13  1  0.161352  0.605024  0.327102  0  .  1
 
