#\#CIF1.1
##########################################################################
#               Crystallographic Information Format file 
#               Produced by PyCifRW module
# 
#  This is a CIF file.  CIF has been adopted by the International
#  Union of Crystallography as the standard for data archiving and 
#  transmission.
#
#  For information on this file format, follow the CIF links at
#  http://www.iucr.org
##########################################################################

data_K5FeO4
_symmetry_space_group_name_H-M          'P 1'
_cell_length_a                          6.78806884
_cell_length_b                          11.53001241
_cell_length_c                          20.58400931
_cell_angle_alpha                       90.0
_cell_angle_beta                        90.0
_cell_angle_gamma                       90.0
_chemical_name_systematic               'Generated by pymatgen'
_symmetry_Int_Tables_number             1
_chemical_formula_structural            K5FeO4
_chemical_formula_sum                   'K40 Fe8 O32'
_cell_volume                            1611.03873446
_cell_formula_units_Z                   8
loop_
  _symmetry_equiv_pos_site_id
  _symmetry_equiv_pos_as_xyz
   1  'x, y, z'
 
loop_
  _atom_site_type_symbol
  _atom_site_label
  _atom_site_symmetry_multiplicity
  _atom_site_fract_x
  _atom_site_fract_y
  _atom_site_fract_z
  _atom_site_attached_hydrogens
  _atom_site_B_iso_or_equiv
  _atom_site_occupancy
   O  O1  1  0.745224  0.126673  0.628115  0  .  1
   O  O2  1  0.245224  0.873327  0.871885  0  .  1
   O  O3  1  0.754776  0.626673  0.371885  0  .  1
   O  O4  1  0.254776  0.373327  0.128115  0  .  1
   O  O5  1  0.254776  0.873327  0.371885  0  .  1
   O  O6  1  0.754776  0.126673  0.128115  0  .  1
   O  O7  1  0.245224  0.373327  0.628115  0  .  1
   O  O8  1  0.745224  0.626673  0.871885  0  .  1
   O  O9  1  0.740280  0.384671  0.796414  0  .  1
   O  O10  1  0.240280  0.615329  0.703586  0  .  1
   O  O11  1  0.759720  0.884671  0.203586  0  .  1
   O  O12  1  0.259720  0.115329  0.296414  0  .  1
   O  O13  1  0.259720  0.615329  0.203586  0  .  1
   O  O14  1  0.759720  0.384671  0.296414  0  .  1
   O  O15  1  0.240280  0.115329  0.796414  0  .  1
   O  O16  1  0.740280  0.884671  0.703586  0  .  1
   O  O17  1  0.704253  0.385382  0.948506  0  .  1
   O  O18  1  0.204253  0.614618  0.551494  0  .  1
   O  O19  1  0.795747  0.885382  0.051494  0  .  1
   O  O20  1  0.295747  0.114618  0.448506  0  .  1
   O  O21  1  0.295747  0.614618  0.051494  0  .  1
   O  O22  1  0.795747  0.385382  0.448506  0  .  1
   O  O23  1  0.204253  0.114618  0.948506  0  .  1
   O  O24  1  0.704253  0.885382  0.551494  0  .  1
   O  O25  1  0.605099  0.044037  0.882560  0  .  1
   O  O26  1  0.105099  0.955963  0.617440  0  .  1
   O  O27  1  0.894901  0.544037  0.117440  0  .  1
   O  O28  1  0.394901  0.455963  0.382560  0  .  1
   O  O29  1  0.394901  0.955963  0.117440  0  .  1
   O  O30  1  0.894901  0.044037  0.382560  0  .  1
   O  O31  1  0.105099  0.455963  0.882560  0  .  1
   O  O32  1  0.605099  0.544037  0.617440  0  .  1
   K  K33  1  0.075666  0.352917  0.000899  0  .  1
   K  K34  1  0.416113  0.063689  0.565792  0  .  1
   K  K35  1  0.583887  0.436311  0.065792  0  .  1
   K  K36  1  0.083887  0.563689  0.434208  0  .  1
   K  K37  1  0.083887  0.063689  0.065792  0  .  1
   K  K38  1  0.583887  0.936311  0.434208  0  .  1
   K  K39  1  0.416113  0.563689  0.934208  0  .  1
   K  K40  1  0.916113  0.436311  0.565792  0  .  1
   K  K41  1  0.926489  0.702837  0.634643  0  .  1
   K  K42  1  0.426489  0.297163  0.865357  0  .  1
   K  K43  1  0.573511  0.202837  0.365357  0  .  1
   K  K44  1  0.073511  0.797163  0.134643  0  .  1
   K  K45  1  0.073511  0.297163  0.365357  0  .  1
   K  K46  1  0.573511  0.702837  0.134643  0  .  1
   K  K47  1  0.426489  0.797163  0.634643  0  .  1
   K  K48  1  0.926489  0.202837  0.865357  0  .  1
   K  K49  1  0.610027  0.083775  0.752133  0  .  1
   K  K50  1  0.110027  0.916225  0.747867  0  .  1
   K  K51  1  0.889973  0.583775  0.247867  0  .  1
   K  K52  1  0.389973  0.416225  0.252133  0  .  1
   K  K53  1  0.389973  0.916225  0.247867  0  .  1
   K  K54  1  0.889973  0.083775  0.252133  0  .  1
   K  K55  1  0.110027  0.416225  0.752133  0  .  1
   K  K56  1  0.610027  0.583775  0.747867  0  .  1
   K  K57  1  0.606038  0.828167  0.825399  0  .  1
   K  K58  1  0.424334  0.852917  0.999101  0  .  1
   K  K59  1  0.575666  0.647083  0.499101  0  .  1
   K  K60  1  0.916113  0.936311  0.934208  0  .  1
   K  K61  1  0.075666  0.852917  0.499101  0  .  1
   K  K62  1  0.575666  0.147083  0.000899  0  .  1
   K  K63  1  0.424334  0.352917  0.500899  0  .  1
   K  K64  1  0.924334  0.647083  0.999101  0  .  1
   K  K65  1  0.606038  0.328167  0.674601  0  .  1
   K  K66  1  0.106038  0.671833  0.825399  0  .  1
   K  K67  1  0.893962  0.828167  0.325399  0  .  1
   K  K68  1  0.393962  0.171833  0.174601  0  .  1
   K  K69  1  0.393962  0.671833  0.325399  0  .  1
   K  K70  1  0.893962  0.328167  0.174601  0  .  1
   K  K71  1  0.106038  0.171833  0.674601  0  .  1
   K  K72  1  0.924334  0.147083  0.500899  0  .  1
   Fe  Fe73  1  0.821823  0.464417  0.875498  0  .  1
   Fe  Fe74  1  0.321823  0.535583  0.624502  0  .  1
   Fe  Fe75  1  0.678177  0.964417  0.124502  0  .  1
   Fe  Fe76  1  0.178177  0.035583  0.375498  0  .  1
   Fe  Fe77  1  0.178177  0.535583  0.124502  0  .  1
   Fe  Fe78  1  0.678177  0.464417  0.375498  0  .  1
   Fe  Fe79  1  0.321823  0.035583  0.875498  0  .  1
   Fe  Fe80  1  0.821823  0.964417  0.624502  0  .  1
 
