#\#CIF1.1
##########################################################################
#               Crystallographic Information Format file 
#               Produced by PyCifRW module
# 
#  This is a CIF file.  CIF has been adopted by the International
#  Union of Crystallography as the standard for data archiving and 
#  transmission.
#
#  For information on this file format, follow the CIF links at
#  http://www.iucr.org
##########################################################################

data_K6Co2O5
_symmetry_space_group_name_H-M          'P 1'
_cell_length_a                          6.67242837
_cell_length_b                          6.67242837
_cell_length_c                          11.89045266
_cell_angle_alpha                       90.0
_cell_angle_beta                        90.0
_cell_angle_gamma                       90.0
_chemical_name_systematic               'Generated by pymatgen'
_symmetry_Int_Tables_number             1
_chemical_formula_structural            K6Co2O5
_chemical_formula_sum                   'K12 Co4 O10'
_cell_volume                            529.378414206
_cell_formula_units_Z                   2
loop_
  _symmetry_equiv_pos_site_id
  _symmetry_equiv_pos_as_xyz
   1  'x, y, z'
 
loop_
  _atom_site_type_symbol
  _atom_site_label
  _atom_site_symmetry_multiplicity
  _atom_site_fract_x
  _atom_site_fract_y
  _atom_site_fract_z
  _atom_site_attached_hydrogens
  _atom_site_B_iso_or_equiv
  _atom_site_occupancy
   Co  Co1  1  0.802736  0.197264  0.000000  0  .  1
   Co  Co2  1  0.302736  0.302736  0.500000  0  .  1
   Co  Co3  1  0.697264  0.697264  0.500000  0  .  1
   Co  Co4  1  0.197264  0.802736  0.000000  0  .  1
   K  K5  1  0.000000  0.000000  0.221910  0  .  1
   K  K6  1  0.500000  0.500000  0.721910  0  .  1
   K  K7  1  0.500000  0.500000  0.278090  0  .  1
   K  K8  1  0.000000  0.000000  0.778090  0  .  1
   K  K9  1  0.500000  0.000000  0.250000  0  .  1
   K  K10  1  0.500000  0.000000  0.750000  0  .  1
   K  K11  1  0.000000  0.500000  0.250000  0  .  1
   K  K12  1  0.000000  0.500000  0.750000  0  .  1
   K  K13  1  0.324398  0.324398  0.000000  0  .  1
   K  K14  1  0.175602  0.824398  0.500000  0  .  1
   K  K15  1  0.824398  0.175602  0.500000  0  .  1
   K  K16  1  0.675602  0.675602  0.000000  0  .  1
   O  O17  1  0.207576  0.207576  0.364662  0  .  1
   O  O18  1  0.292424  0.707576  0.864662  0  .  1
   O  O19  1  0.707576  0.292424  0.864662  0  .  1
   O  O20  1  0.707576  0.292424  0.135338  0  .  1
   O  O21  1  0.292424  0.707576  0.135338  0  .  1
   O  O22  1  0.792424  0.792424  0.364662  0  .  1
   O  O23  1  0.207576  0.207576  0.635338  0  .  1
   O  O24  1  0.792424  0.792424  0.635338  0  .  1
   O  O25  1  0.000000  0.000000  0.000000  0  .  1
   O  O26  1  0.500000  0.500000  0.500000  0  .  1
 
