#\#CIF1.1
##########################################################################
#               Crystallographic Information Format file 
#               Produced by PyCifRW module
# 
#  This is a CIF file.  CIF has been adopted by the International
#  Union of Crystallography as the standard for data archiving and 
#  transmission.
#
#  For information on this file format, follow the CIF links at
#  http://www.iucr.org
##########################################################################

data_K6Co2O7
_symmetry_space_group_name_H-M          'P 1'
_cell_length_a                          6.63697790356
_cell_length_b                          9.20836731
_cell_length_c                          9.31937013724
_cell_angle_alpha                       90.0
_cell_angle_beta                        92.3398020147
_cell_angle_gamma                       90.0
_chemical_name_systematic               'Generated by pymatgen'
_symmetry_Int_Tables_number             1
_chemical_formula_structural            K6Co2O7
_chemical_formula_sum                   'K12 Co4 O14'
_cell_volume                            569.085256209
_cell_formula_units_Z                   2
loop_
  _symmetry_equiv_pos_site_id
  _symmetry_equiv_pos_as_xyz
   1  'x, y, z'
 
loop_
  _atom_site_type_symbol
  _atom_site_label
  _atom_site_symmetry_multiplicity
  _atom_site_fract_x
  _atom_site_fract_y
  _atom_site_fract_z
  _atom_site_attached_hydrogens
  _atom_site_B_iso_or_equiv
  _atom_site_occupancy
   O  O1  1  0.000000  0.500000  0.500000  0  .  1
   O  O2  1  0.500000  0.000000  0.000000  0  .  1
   O  O3  1  0.677096  0.667478  0.642387  0  .  1
   O  O4  1  0.822904  0.167478  0.857613  0  .  1
   O  O5  1  0.428264  0.301640  0.928140  0  .  1
   O  O6  1  0.071736  0.801640  0.571860  0  .  1
   O  O7  1  0.571736  0.698360  0.071860  0  .  1
   O  O8  1  0.928264  0.198360  0.428140  0  .  1
   O  O9  1  0.947492  0.404124  0.191428  0  .  1
   O  O10  1  0.552508  0.904124  0.308572  0  .  1
   O  O11  1  0.052508  0.595876  0.808572  0  .  1
   O  O12  1  0.447492  0.095876  0.691428  0  .  1
   O  O13  1  0.177096  0.832522  0.142387  0  .  1
   O  O14  1  0.322904  0.332522  0.357613  0  .  1
   K  K15  1  0.365114  0.798020  0.787228  0  .  1
   K  K16  1  0.134886  0.298020  0.712772  0  .  1
   K  K17  1  0.635434  0.348947  0.566851  0  .  1
   K  K18  1  0.864566  0.848947  0.933149  0  .  1
   K  K19  1  0.364566  0.651053  0.433149  0  .  1
   K  K20  1  0.135434  0.151053  0.066851  0  .  1
   K  K21  1  0.746180  0.473074  0.942934  0  .  1
   K  K22  1  0.753820  0.973074  0.557066  0  .  1
   K  K23  1  0.253820  0.526926  0.057066  0  .  1
   K  K24  1  0.246180  0.026926  0.442934  0  .  1
   K  K25  1  0.634886  0.201980  0.212772  0  .  1
   K  K26  1  0.865114  0.701980  0.287228  0  .  1
   Co  Co27  1  0.054312  0.356621  0.364293  0  .  1
   Co  Co28  1  0.445688  0.856621  0.135707  0  .  1
   Co  Co29  1  0.945688  0.643379  0.635707  0  .  1
   Co  Co30  1  0.554312  0.143379  0.864293  0  .  1
 
