#\#CIF1.1
##########################################################################
#               Crystallographic Information Format file 
#               Produced by PyCifRW module
# 
#  This is a CIF file.  CIF has been adopted by the International
#  Union of Crystallography as the standard for data archiving and 
#  transmission.
#
#  For information on this file format, follow the CIF links at
#  http://www.iucr.org
##########################################################################

data_K6Cr2O9
_symmetry_space_group_name_H-M          'P 1'
_cell_length_a                          6.41423880032
_cell_length_b                          7.86959705137
_cell_length_c                          6.41423880032
_cell_angle_alpha                       90.8839354181
_cell_angle_beta                        96.1896520442
_cell_angle_gamma                       89.1160645819
_chemical_name_systematic               'Generated by pymatgen'
_symmetry_Int_Tables_number             1
_chemical_formula_structural            K6Cr2O9
_chemical_formula_sum                   'K6 Cr2 O9'
_cell_volume                            321.817959985
_cell_formula_units_Z                   1
loop_
  _symmetry_equiv_pos_site_id
  _symmetry_equiv_pos_as_xyz
   1  'x, y, z'
 
loop_
  _atom_site_type_symbol
  _atom_site_label
  _atom_site_symmetry_multiplicity
  _atom_site_fract_x
  _atom_site_fract_y
  _atom_site_fract_z
  _atom_site_attached_hydrogens
  _atom_site_B_iso_or_equiv
  _atom_site_occupancy
   K  K1  1  0.500298  0.982584  0.499702  0  .  1
   K  K2  1  0.504829  0.266208  0.001377  0  .  1
   K  K3  1  0.493396  0.779597  0.996971  0  .  1
   K  K4  1  0.995873  0.535514  0.004127  0  .  1
   K  K5  1  0.003029  0.779597  0.506604  0  .  1
   K  K6  1  0.998623  0.266208  0.495171  0  .  1
   Cr  Cr7  1  0.511095  0.509215  0.488905  0  .  1
   Cr  Cr8  1  0.970161  0.986043  0.029839  0  .  1
   O  O9  1  0.797160  0.059643  0.202840  0  .  1
   O  O10  1  0.827657  0.872864  0.836603  0  .  1
   O  O11  1  0.675950  0.602267  0.324050  0  .  1
   O  O12  1  0.671012  0.391954  0.671502  0  .  1
   O  O13  1  0.328498  0.391954  0.328988  0  .  1
   O  O14  1  0.370012  0.652431  0.629988  0  .  1
   O  O15  1  0.163397  0.872864  0.172343  0  .  1
   O  O16  1  0.231894  0.074340  0.768106  0  .  1
   O  O17  1  0.092616  0.159219  0.907385  0  .  1
 
