#\#CIF1.1
##########################################################################
#               Crystallographic Information Format file 
#               Produced by PyCifRW module
# 
#  This is a CIF file.  CIF has been adopted by the International
#  Union of Crystallography as the standard for data archiving and 
#  transmission.
#
#  For information on this file format, follow the CIF links at
#  http://www.iucr.org
##########################################################################

data_K6Ti2O7
_symmetry_space_group_name_H-M          'P 1'
_cell_length_a                          6.64296785803
_cell_length_b                          9.38967635
_cell_length_c                          9.57368967364
_cell_angle_alpha                       90.0
_cell_angle_beta                        92.0471382946
_cell_angle_gamma                       90.0
_chemical_name_systematic               'Generated by pymatgen'
_symmetry_Int_Tables_number             1
_chemical_formula_structural            K6Ti2O7
_chemical_formula_sum                   'K12 Ti4 O14'
_cell_volume                            596.780816768
_cell_formula_units_Z                   2
loop_
  _symmetry_equiv_pos_site_id
  _symmetry_equiv_pos_as_xyz
   1  'x, y, z'
 
loop_
  _atom_site_type_symbol
  _atom_site_label
  _atom_site_symmetry_multiplicity
  _atom_site_fract_x
  _atom_site_fract_y
  _atom_site_fract_z
  _atom_site_attached_hydrogens
  _atom_site_B_iso_or_equiv
  _atom_site_occupancy
   K  K1  1  0.427367  0.094584  0.793756  0  .  1
   K  K2  1  0.927367  0.905416  0.293756  0  .  1
   K  K3  1  0.301536  0.221037  0.403069  0  .  1
   K  K4  1  0.172738  0.591337  0.425376  0  .  1
   K  K5  1  0.672738  0.408663  0.925376  0  .  1
   K  K6  1  0.176849  0.457362  0.078624  0  .  1
   K  K7  1  0.676849  0.542638  0.578624  0  .  1
   K  K8  1  0.801536  0.778963  0.903069  0  .  1
   K  K9  1  0.298074  0.725168  0.812926  0  .  1
   K  K10  1  0.921201  0.045674  0.637956  0  .  1
   K  K11  1  0.421201  0.954326  0.137956  0  .  1
   K  K12  1  0.798074  0.274832  0.312926  0  .  1
   Ti  Ti13  1  0.991012  0.107212  0.992645  0  .  1
   Ti  Ti14  1  0.606432  0.605463  0.225896  0  .  1
   Ti  Ti15  1  0.491012  0.892788  0.492645  0  .  1
   Ti  Ti16  1  0.106432  0.394537  0.725896  0  .  1
   O  O17  1  0.220609  0.924122  0.494986  0  .  1
   O  O18  1  0.976764  0.553842  0.781448  0  .  1
   O  O19  1  0.006958  0.342982  0.554028  0  .  1
   O  O20  1  0.720609  0.075878  -0.005014  0  .  1
   O  O21  1  0.092730  0.151207  0.165788  0  .  1
   O  O22  1  0.476764  0.446158  0.281448  0  .  1
   O  O23  1  0.123152  0.952711  0.927925  0  .  1
   O  O24  1  0.043797  0.255698  0.863037  0  .  1
   O  O25  1  0.543797  0.744302  0.363037  0  .  1
   O  O26  1  0.378181  0.421763  0.725341  0  .  1
   O  O27  1  0.878181  0.578237  0.225341  0  .  1
   O  O28  1  0.506958  0.657018  0.054028  0  .  1
   O  O29  1  0.592730  0.848793  0.665788  0  .  1
   O  O30  1  0.623152  0.047289  0.427925  0  .  1
 
