#\#CIF1.1
##########################################################################
#               Crystallographic Information Format file 
#               Produced by PyCifRW module
# 
#  This is a CIF file.  CIF has been adopted by the International
#  Union of Crystallography as the standard for data archiving and 
#  transmission.
#
#  For information on this file format, follow the CIF links at
#  http://www.iucr.org
##########################################################################

data_K9Co2S7
_symmetry_space_group_name_H-M          'P 1'
_cell_length_a                          12.83331152
_cell_length_b                          12.83331152
_cell_length_c                          12.83331152
_cell_angle_alpha                       90.0
_cell_angle_beta                        90.0
_cell_angle_gamma                       90.0
_chemical_name_systematic               'Generated by pymatgen'
_symmetry_Int_Tables_number             1
_chemical_formula_structural            K9Co2S7
_chemical_formula_sum                   'K36 Co8 S28'
_cell_volume                            2113.56792612
_cell_formula_units_Z                   4
loop_
  _symmetry_equiv_pos_site_id
  _symmetry_equiv_pos_as_xyz
   1  'x, y, z'
 
loop_
  _atom_site_type_symbol
  _atom_site_label
  _atom_site_symmetry_multiplicity
  _atom_site_fract_x
  _atom_site_fract_y
  _atom_site_fract_z
  _atom_site_attached_hydrogens
  _atom_site_B_iso_or_equiv
  _atom_site_occupancy
   S  S1  1  0.250223  0.249777  0.750223  0  .  1
   S  S2  1  0.249777  0.750223  0.250223  0  .  1
   S  S3  1  0.750223  0.250223  0.249777  0  .  1
   S  S4  1  0.749777  0.749777  0.749777  0  .  1
   S  S5  1  0.425119  0.929472  0.832066  0  .  1
   S  S6  1  0.925119  0.570528  0.167934  0  .  1
   S  S7  1  0.574881  0.429472  0.667934  0  .  1
   S  S8  1  0.570528  0.167934  0.925119  0  .  1
   S  S9  1  0.667934  0.574881  0.429472  0  .  1
   S  S10  1  0.167934  0.925119  0.570528  0  .  1
   S  S11  1  0.929472  0.832066  0.425119  0  .  1
   S  S12  1  0.832066  0.425119  0.929472  0  .  1
   S  S13  1  0.429472  0.667934  0.574881  0  .  1
   S  S14  1  0.070528  0.332066  0.074881  0  .  1
   S  S15  1  0.332066  0.074881  0.070528  0  .  1
   S  S16  1  0.074881  0.070528  0.332066  0  .  1
   S  S17  1  0.574937  0.929642  0.331878  0  .  1
   S  S18  1  0.074937  0.570358  0.668122  0  .  1
   S  S19  1  0.425063  0.429642  0.168122  0  .  1
   S  S20  1  0.570358  0.668122  0.074937  0  .  1
   S  S21  1  0.168122  0.425063  0.429642  0  .  1
   S  S22  1  0.668122  0.074937  0.570358  0  .  1
   S  S23  1  0.929642  0.331878  0.574937  0  .  1
   S  S24  1  0.331878  0.574937  0.929642  0  .  1
   S  S25  1  0.429642  0.168122  0.425063  0  .  1
   S  S26  1  0.070358  0.831878  0.925063  0  .  1
   S  S27  1  0.831878  0.925063  0.070358  0  .  1
   S  S28  1  0.925063  0.070358  0.831878  0  .  1
   K  K29  1  0.030948  0.806797  0.186553  0  .  1
   K  K30  1  0.249963  0.749963  0.750037  0  .  1
   K  K31  1  0.750037  0.249963  0.749963  0  .  1
   K  K32  1  0.749963  0.750037  0.249963  0  .  1
   K  K33  1  0.080068  0.080068  0.080068  0  .  1
   K  K34  1  0.419932  0.919932  0.580068  0  .  1
   K  K35  1  0.580068  0.419932  0.919932  0  .  1
   K  K36  1  0.919932  0.580068  0.419932  0  .  1
   K  K37  1  0.813545  0.031317  0.306631  0  .  1
   K  K38  1  0.306631  0.813545  0.031317  0  .  1
   K  K39  1  0.031317  0.306631  0.813545  0  .  1
   K  K40  1  0.468683  0.693369  0.313545  0  .  1
   K  K41  1  0.806631  0.686455  0.968683  0  .  1
   K  K42  1  0.968683  0.806631  0.686455  0  .  1
   K  K43  1  0.193369  0.186455  0.531317  0  .  1
   K  K44  1  0.693369  0.313545  0.468683  0  .  1
   K  K45  1  0.313447  0.969052  0.306797  0  .  1
   K  K46  1  0.813447  0.530948  0.693203  0  .  1
   K  K47  1  0.686553  0.469052  0.193203  0  .  1
   K  K48  1  0.530948  0.693203  0.813447  0  .  1
   K  K49  1  0.193203  0.686553  0.469052  0  .  1
   K  K50  1  0.693203  0.813447  0.530948  0  .  1
   K  K51  1  0.531317  0.193369  0.186455  0  .  1
   K  K52  1  0.306797  0.313447  0.969052  0  .  1
   K  K53  1  0.469052  0.193203  0.686553  0  .  1
   K  K54  1  0.250037  0.250037  0.250037  0  .  1
   K  K55  1  0.806797  0.186553  0.030948  0  .  1
   K  K56  1  0.186553  0.030948  0.806797  0  .  1
   K  K57  1  0.579954  0.920046  0.079954  0  .  1
   K  K58  1  0.920046  0.079954  0.579954  0  .  1
   K  K59  1  0.079954  0.579954  0.920046  0  .  1
   K  K60  1  0.420046  0.420046  0.420046  0  .  1
   K  K61  1  0.686455  0.968683  0.806631  0  .  1
   K  K62  1  0.186455  0.531317  0.193369  0  .  1
   K  K63  1  0.313545  0.468683  0.693369  0  .  1
   K  K64  1  0.969052  0.306797  0.313447  0  .  1
   Co  Co65  1  0.436520  0.063480  0.936520  0  .  1
   Co  Co66  1  0.063480  0.936520  0.436520  0  .  1
   Co  Co67  1  0.936520  0.436520  0.063480  0  .  1
   Co  Co68  1  0.563480  0.563480  0.563480  0  .  1
   Co  Co69  1  0.063512  0.436488  0.563512  0  .  1
   Co  Co70  1  0.436488  0.563512  0.063512  0  .  1
   Co  Co71  1  0.563512  0.063512  0.436488  0  .  1
   Co  Co72  1  0.936488  0.936488  0.936488  0  .  1
 
