#\#CIF1.1
##########################################################################
#               Crystallographic Information Format file 
#               Produced by PyCifRW module
# 
#  This is a CIF file.  CIF has been adopted by the International
#  Union of Crystallography as the standard for data archiving and 
#  transmission.
#
#  For information on this file format, follow the CIF links at
#  http://www.iucr.org
##########################################################################

data_K9Fe2Se7
_symmetry_space_group_name_H-M          'P 1'
_cell_length_a                          13.25471047
_cell_length_b                          13.25471047
_cell_length_c                          13.25471047
_cell_angle_alpha                       90.0
_cell_angle_beta                        90.0
_cell_angle_gamma                       90.0
_chemical_name_systematic               'Generated by pymatgen'
_symmetry_Int_Tables_number             1
_chemical_formula_structural            K9Fe2Se7
_chemical_formula_sum                   'K36 Fe8 Se28'
_cell_volume                            2328.68495277
_cell_formula_units_Z                   4
loop_
  _symmetry_equiv_pos_site_id
  _symmetry_equiv_pos_as_xyz
   1  'x, y, z'
 
loop_
  _atom_site_type_symbol
  _atom_site_label
  _atom_site_symmetry_multiplicity
  _atom_site_fract_x
  _atom_site_fract_y
  _atom_site_fract_z
  _atom_site_attached_hydrogens
  _atom_site_B_iso_or_equiv
  _atom_site_occupancy
   K  K1  1  0.832168  0.002564  0.302069  0  .  1
   K  K2  1  0.302069  0.832168  0.002564  0  .  1
   K  K3  1  0.002564  0.302069  0.832168  0  .  1
   K  K4  1  0.497436  0.697931  0.332168  0  .  1
   K  K5  1  0.802069  0.667832  0.997436  0  .  1
   K  K6  1  0.997436  0.802069  0.667832  0  .  1
   K  K7  1  0.197931  0.167832  0.502564  0  .  1
   K  K8  1  0.697931  0.332168  0.497436  0  .  1
   K  K9  1  0.502564  0.197931  0.167832  0  .  1
   K  K10  1  0.332168  0.497436  0.697931  0  .  1
   K  K11  1  0.167832  0.502564  0.197931  0  .  1
   K  K12  1  0.667832  0.997436  0.802069  0  .  1
   K  K13  1  0.179689  0.041995  0.794187  0  .  1
   K  K14  1  0.794187  0.179689  0.041995  0  .  1
   K  K15  1  0.041995  0.794187  0.179689  0  .  1
   K  K16  1  0.458005  0.205813  0.679689  0  .  1
   K  K17  1  0.294187  0.320311  0.958005  0  .  1
   K  K18  1  0.958005  0.294187  0.320311  0  .  1
   K  K19  1  0.705813  0.820311  0.541995  0  .  1
   K  K20  1  0.205813  0.679689  0.458005  0  .  1
   K  K21  1  0.541995  0.705813  0.820311  0  .  1
   K  K22  1  0.679689  0.458005  0.205813  0  .  1
   K  K23  1  0.820311  0.541995  0.705813  0  .  1
   K  K24  1  0.320311  0.958005  0.294187  0  .  1
   K  K25  1  0.417472  0.417472  0.417472  0  .  1
   K  K26  1  0.082528  0.582528  0.917472  0  .  1
   K  K27  1  0.917472  0.082528  0.582528  0  .  1
   K  K28  1  0.582528  0.917472  0.082528  0  .  1
   K  K29  1  0.240342  0.240342  0.240342  0  .  1
   K  K30  1  0.259658  0.759658  0.740342  0  .  1
   K  K31  1  0.740342  0.259658  0.759658  0  .  1
   K  K32  1  0.759658  0.740342  0.259658  0  .  1
   K  K33  1  0.057081  0.057081  0.057081  0  .  1
   K  K34  1  0.442919  0.942919  0.557081  0  .  1
   K  K35  1  0.557081  0.442919  0.942919  0  .  1
   K  K36  1  0.942919  0.557081  0.442919  0  .  1
   Fe  Fe37  1  0.570182  0.570182  0.570182  0  .  1
   Fe  Fe38  1  0.929818  0.429818  0.070182  0  .  1
   Fe  Fe39  1  0.070182  0.929818  0.429818  0  .  1
   Fe  Fe40  1  0.429818  0.070182  0.929818  0  .  1
   Fe  Fe41  1  0.899524  0.899524  0.899524  0  .  1
   Fe  Fe42  1  0.600476  0.100476  0.399524  0  .  1
   Fe  Fe43  1  0.399524  0.600476  0.100476  0  .  1
   Fe  Fe44  1  0.100476  0.399524  0.600476  0  .  1
   Se  Se45  1  0.914291  0.069468  0.832219  0  .  1
   Se  Se46  1  0.832219  0.914291  0.069468  0  .  1
   Se  Se47  1  0.069468  0.832219  0.914291  0  .  1
   Se  Se48  1  0.430532  0.167781  0.414291  0  .  1
   Se  Se49  1  0.332219  0.585709  0.930532  0  .  1
   Se  Se50  1  0.930532  0.332219  0.585709  0  .  1
   Se  Se51  1  0.667781  0.085709  0.569468  0  .  1
   Se  Se52  1  0.167781  0.414291  0.430532  0  .  1
   Se  Se53  1  0.569468  0.667781  0.085709  0  .  1
   Se  Se54  1  0.414291  0.430532  0.167781  0  .  1
   Se  Se55  1  0.085709  0.569468  0.667781  0  .  1
   Se  Se56  1  0.585709  0.930532  0.332219  0  .  1
   Se  Se57  1  0.075180  0.061913  0.310221  0  .  1
   Se  Se58  1  0.310221  0.075180  0.061913  0  .  1
   Se  Se59  1  0.061913  0.310221  0.075180  0  .  1
   Se  Se60  1  0.438087  0.689779  0.575180  0  .  1
   Se  Se61  1  0.810221  0.424820  0.938087  0  .  1
   Se  Se62  1  0.938087  0.810221  0.424820  0  .  1
   Se  Se63  1  0.189779  0.924820  0.561913  0  .  1
   Se  Se64  1  0.689779  0.575180  0.438087  0  .  1
   Se  Se65  1  0.561913  0.189779  0.924820  0  .  1
   Se  Se66  1  0.575180  0.438087  0.689779  0  .  1
   Se  Se67  1  0.924820  0.561913  0.189779  0  .  1
   Se  Se68  1  0.424820  0.938087  0.810221  0  .  1
   Se  Se69  1  0.790928  0.790928  0.790928  0  .  1
   Se  Se70  1  0.709072  0.209072  0.290928  0  .  1
   Se  Se71  1  0.290928  0.709072  0.209072  0  .  1
   Se  Se72  1  0.209072  0.290928  0.709072  0  .  1
 
