#\#CIF1.1
##########################################################################
#               Crystallographic Information Format file 
#               Produced by PyCifRW module
# 
#  This is a CIF file.  CIF has been adopted by the International
#  Union of Crystallography as the standard for data archiving and 
#  transmission.
#
#  For information on this file format, follow the CIF links at
#  http://www.iucr.org
##########################################################################

data_KBaFeO3
_symmetry_space_group_name_H-M          'P 1'
_cell_length_a                          5.93673851
_cell_length_b                          6.57172472069
_cell_length_c                          12.97330811
_cell_angle_alpha                       90.0
_cell_angle_beta                        90.0
_cell_angle_gamma                       116.852036489
_chemical_name_systematic               'Generated by pymatgen'
_symmetry_Int_Tables_number             1
_chemical_formula_structural            KBaFeO3
_chemical_formula_sum                   'K4 Ba4 Fe4 O12'
_cell_volume                            451.573588216
_cell_formula_units_Z                   4
loop_
  _symmetry_equiv_pos_site_id
  _symmetry_equiv_pos_as_xyz
   1  'x, y, z'
 
loop_
  _atom_site_type_symbol
  _atom_site_label
  _atom_site_symmetry_multiplicity
  _atom_site_fract_x
  _atom_site_fract_y
  _atom_site_fract_z
  _atom_site_attached_hydrogens
  _atom_site_B_iso_or_equiv
  _atom_site_occupancy
   O  O1  1  0.522422  0.544844  0.750000  0  .  1
   O  O2  1  0.977578  0.455156  0.250000  0  .  1
   O  O3  1  0.477578  0.455156  0.250000  0  .  1
   O  O4  1  0.022422  0.544844  0.750000  0  .  1
   O  O5  1  0.576287  0.152574  0.876542  0  .  1
   O  O6  1  0.423713  0.847426  0.123458  0  .  1
   O  O7  1  0.923713  0.847426  0.376542  0  .  1
   O  O8  1  0.328802  0.657604  0.548414  0  .  1
   O  O9  1  0.828802  0.657604  0.951586  0  .  1
   O  O10  1  0.171198  0.342396  0.048414  0  .  1
   O  O11  1  0.671198  0.342396  0.451586  0  .  1
   O  O12  1  0.076287  0.152574  0.623458  0  .  1
   K  K13  1  0.546404  0.092808  0.640589  0  .  1
   K  K14  1  0.453596  0.907192  0.359411  0  .  1
   K  K15  1  0.953596  0.907192  0.140589  0  .  1
   K  K16  1  0.046404  0.092808  0.859411  0  .  1
   Fe  Fe17  1  0.769519  0.539038  0.336494  0  .  1
   Fe  Fe18  1  0.269519  0.539038  0.163506  0  .  1
   Fe  Fe19  1  0.230481  0.460962  0.663506  0  .  1
   Fe  Fe20  1  0.730481  0.460962  0.836494  0  .  1
   Ba  Ba21  1  0.356627  0.713254  0.918371  0  .  1
   Ba  Ba22  1  0.143373  0.286746  0.418371  0  .  1
   Ba  Ba23  1  0.856627  0.713254  0.581629  0  .  1
   Ba  Ba24  1  0.643373  0.286746  0.081629  0  .  1
 
