#\#CIF1.1
##########################################################################
#               Crystallographic Information Format file 
#               Produced by PyCifRW module
# 
#  This is a CIF file.  CIF has been adopted by the International
#  Union of Crystallography as the standard for data archiving and 
#  transmission.
#
#  For information on this file format, follow the CIF links at
#  http://www.iucr.org
##########################################################################

data_KBaVO4
_symmetry_space_group_name_H-M          'P 1'
_cell_length_a                          6.02528622
_cell_length_b                          7.88736386
_cell_length_c                          10.57497936
_cell_angle_alpha                       90.0
_cell_angle_beta                        90.0
_cell_angle_gamma                       90.0
_chemical_name_systematic               'Generated by pymatgen'
_symmetry_Int_Tables_number             1
_chemical_formula_structural            KBaVO4
_chemical_formula_sum                   'K4 Ba4 V4 O16'
_cell_volume                            502.561351137
_cell_formula_units_Z                   4
loop_
  _symmetry_equiv_pos_site_id
  _symmetry_equiv_pos_as_xyz
   1  'x, y, z'
 
loop_
  _atom_site_type_symbol
  _atom_site_label
  _atom_site_symmetry_multiplicity
  _atom_site_fract_x
  _atom_site_fract_y
  _atom_site_fract_z
  _atom_site_attached_hydrogens
  _atom_site_B_iso_or_equiv
  _atom_site_occupancy
   O  O1  1  0.989245  0.292524  0.163011  0  .  1
   O  O2  1  0.489245  0.707476  0.836989  0  .  1
   O  O3  1  0.510755  0.792524  0.336989  0  .  1
   O  O4  1  0.010755  0.207476  0.663011  0  .  1
   O  O5  1  0.010755  0.707476  0.836989  0  .  1
   O  O6  1  0.510755  0.292524  0.163011  0  .  1
   O  O7  1  0.489245  0.207476  0.663011  0  .  1
   O  O8  1  0.989245  0.792524  0.336989  0  .  1
   O  O9  1  0.250000  0.688855  0.070416  0  .  1
   O  O10  1  0.750000  0.311145  0.929584  0  .  1
   O  O11  1  0.250000  0.188855  0.429584  0  .  1
   O  O12  1  0.750000  0.811145  0.570416  0  .  1
   O  O13  1  0.750000  0.508414  0.428278  0  .  1
   O  O14  1  0.250000  0.491586  0.571722  0  .  1
   O  O15  1  0.750000  0.008414  0.071722  0  .  1
   O  O16  1  0.250000  0.991586  0.928278  0  .  1
   K  K17  1  0.250000  0.336384  0.926589  0  .  1
   K  K18  1  0.750000  0.663616  0.073411  0  .  1
   K  K19  1  0.250000  0.836384  0.573411  0  .  1
   K  K20  1  0.750000  0.163616  0.426589  0  .  1
   V  V21  1  0.250000  0.772227  0.916704  0  .  1
   V  V22  1  0.750000  0.227773  0.083296  0  .  1
   V  V23  1  0.250000  0.272227  0.583296  0  .  1
   V  V24  1  0.750000  0.727773  0.416704  0  .  1
   Ba  Ba25  1  0.250000  0.002474  0.196239  0  .  1
   Ba  Ba26  1  0.750000  0.997526  0.803761  0  .  1
   Ba  Ba27  1  0.250000  0.502474  0.303761  0  .  1
   Ba  Ba28  1  0.750000  0.497526  0.696239  0  .  1
 
