#\#CIF1.1
##########################################################################
#               Crystallographic Information Format file 
#               Produced by PyCifRW module
# 
#  This is a CIF file.  CIF has been adopted by the International
#  Union of Crystallography as the standard for data archiving and 
#  transmission.
#
#  For information on this file format, follow the CIF links at
#  http://www.iucr.org
##########################################################################

data_KCu4S3
_symmetry_space_group_name_H-M          'P 1'
_cell_length_a                          3.88105479
_cell_length_b                          3.88105479
_cell_length_c                          9.30947971
_cell_angle_alpha                       90.0
_cell_angle_beta                        90.0
_cell_angle_gamma                       90.0
_chemical_name_systematic               'Generated by pymatgen'
_symmetry_Int_Tables_number             1
_chemical_formula_structural            KCu4S3
_chemical_formula_sum                   'K1 Cu4 S3'
_cell_volume                            140.224841382
_cell_formula_units_Z                   1
loop_
  _symmetry_equiv_pos_site_id
  _symmetry_equiv_pos_as_xyz
   1  'x, y, z'
 
loop_
  _atom_site_type_symbol
  _atom_site_label
  _atom_site_symmetry_multiplicity
  _atom_site_fract_x
  _atom_site_fract_y
  _atom_site_fract_z
  _atom_site_attached_hydrogens
  _atom_site_B_iso_or_equiv
  _atom_site_occupancy
   S  S1  1  0.500000  0.500000  0.705073  0  .  1
   S  S2  1  0.500000  0.500000  0.294927  0  .  1
   S  S3  1  0.000000  0.000000  0.000000  0  .  1
   K  K4  1  0.000000  0.000000  0.500000  0  .  1
   Cu  Cu5  1  0.500000  0.000000  0.839306  0  .  1
   Cu  Cu6  1  0.000000  0.500000  0.160694  0  .  1
   Cu  Cu7  1  0.500000  0.000000  0.160694  0  .  1
   Cu  Cu8  1  0.000000  0.500000  0.839306  0  .  1
 
