#\#CIF1.1
##########################################################################
#               Crystallographic Information Format file 
#               Produced by PyCifRW module
# 
#  This is a CIF file.  CIF has been adopted by the International
#  Union of Crystallography as the standard for data archiving and 
#  transmission.
#
#  For information on this file format, follow the CIF links at
#  http://www.iucr.org
##########################################################################

data_KCuO
_symmetry_space_group_name_H-M          'P 1'
_cell_length_a                          5.55266541699
_cell_length_b                          7.1800188475
_cell_length_c                          7.18001884534
_cell_angle_alpha                       81.401037473
_cell_angle_beta                        67.252243655
_cell_angle_gamma                       67.2522436193
_chemical_name_systematic               'Generated by pymatgen'
_symmetry_Int_Tables_number             1
_chemical_formula_structural            KCuO
_chemical_formula_sum                   'K4 Cu4 O4'
_cell_volume                            243.454657091
_cell_formula_units_Z                   4
loop_
  _symmetry_equiv_pos_site_id
  _symmetry_equiv_pos_as_xyz
   1  'x, y, z'
 
loop_
  _atom_site_type_symbol
  _atom_site_label
  _atom_site_symmetry_multiplicity
  _atom_site_fract_x
  _atom_site_fract_y
  _atom_site_fract_z
  _atom_site_attached_hydrogens
  _atom_site_B_iso_or_equiv
  _atom_site_occupancy
   O  O1  1  0.471457  0.778484  0.778484  0  .  1
   O  O2  1  0.750060  0.221516  0.778484  0  .  1
   O  O3  1  0.750060  0.778484  0.221516  0  .  1
   O  O4  1  0.028424  0.221516  0.221516  0  .  1
   K  K5  1  0.250019  0.190281  0.809719  0  .  1
   K  K6  1  0.250019  0.809719  0.190281  0  .  1
   K  K7  1  0.940262  0.809719  0.809719  0  .  1
   K  K8  1  0.559699  0.190281  0.190281  0  .  1
   Cu  Cu9  1  0.888986  0.500000  0.222028  0  .  1
   Cu  Cu10  1  0.611014  0.777972  0.500000  0  .  1
   Cu  Cu11  1  0.611014  0.500000  0.777972  0  .  1
   Cu  Cu12  1  0.888986  0.222028  0.500000  0  .  1
 
