#\#CIF1.1
##########################################################################
#               Crystallographic Information Format file 
#               Produced by PyCifRW module
# 
#  This is a CIF file.  CIF has been adopted by the International
#  Union of Crystallography as the standard for data archiving and 
#  transmission.
#
#  For information on this file format, follow the CIF links at
#  http://www.iucr.org
##########################################################################

data_KCuS
_symmetry_space_group_name_H-M          'P 1'
_cell_length_a                          5.31486252
_cell_length_b                          6.29872432
_cell_length_c                          10.71625287
_cell_angle_alpha                       90.0
_cell_angle_beta                        90.0
_cell_angle_gamma                       90.0
_chemical_name_systematic               'Generated by pymatgen'
_symmetry_Int_Tables_number             1
_chemical_formula_structural            KCuS
_chemical_formula_sum                   'K4 Cu4 S4'
_cell_volume                            358.746430743
_cell_formula_units_Z                   4
loop_
  _symmetry_equiv_pos_site_id
  _symmetry_equiv_pos_as_xyz
   1  'x, y, z'
 
loop_
  _atom_site_type_symbol
  _atom_site_label
  _atom_site_symmetry_multiplicity
  _atom_site_fract_x
  _atom_site_fract_y
  _atom_site_fract_z
  _atom_site_attached_hydrogens
  _atom_site_B_iso_or_equiv
  _atom_site_occupancy
   S  S1  1  0.248258  0.223754  0.088935  0  .  1
   S  S2  1  0.248258  0.276246  0.588935  0  .  1
   S  S3  1  0.748258  0.776246  0.911065  0  .  1
   S  S4  1  0.748258  0.723754  0.411065  0  .  1
   K  K5  1  0.249272  0.523283  0.846005  0  .  1
   K  K6  1  0.749272  0.023283  0.653995  0  .  1
   K  K7  1  0.249272  0.976717  0.346005  0  .  1
   K  K8  1  0.749272  0.476717  0.153995  0  .  1
   Cu  Cu9  1  0.998469  0.999770  0.999973  0  .  1
   Cu  Cu10  1  0.998469  0.500230  0.499973  0  .  1
   Cu  Cu11  1  0.498469  0.499770  0.500027  0  .  1
   Cu  Cu12  1  0.498469  0.000230  0.000027  0  .  1
 
