#\#CIF1.1
##########################################################################
#               Crystallographic Information Format file 
#               Produced by PyCifRW module
# 
#  This is a CIF file.  CIF has been adopted by the International
#  Union of Crystallography as the standard for data archiving and 
#  transmission.
#
#  For information on this file format, follow the CIF links at
#  http://www.iucr.org
##########################################################################

data_KFe2S3
_symmetry_space_group_name_H-M          'P 1'
_cell_length_a                          5.157325
_cell_length_b                          7.15994609436
_cell_length_c                          7.15994609699
_cell_angle_alpha                       103.883040614
_cell_angle_beta                        90.0
_cell_angle_gamma                       90.0
_chemical_name_systematic               'Generated by pymatgen'
_symmetry_Int_Tables_number             1
_chemical_formula_structural            KFe2S3
_chemical_formula_sum                   'K2 Fe4 S6'
_cell_volume                            256.66591692
_cell_formula_units_Z                   2
loop_
  _symmetry_equiv_pos_site_id
  _symmetry_equiv_pos_as_xyz
   1  'x, y, z'
 
loop_
  _atom_site_type_symbol
  _atom_site_label
  _atom_site_symmetry_multiplicity
  _atom_site_fract_x
  _atom_site_fract_y
  _atom_site_fract_z
  _atom_site_attached_hydrogens
  _atom_site_B_iso_or_equiv
  _atom_site_occupancy
   S  S1  1  0.750000  0.172828  0.384568  0  .  1
   S  S2  1  0.250000  0.827172  0.615432  0  .  1
   S  S3  1  0.250000  0.384568  0.172828  0  .  1
   S  S4  1  0.750000  0.107827  0.892173  0  .  1
   S  S5  1  0.250000  0.892173  0.107827  0  .  1
   S  S6  1  0.750000  0.615432  0.827172  0  .  1
   K  K7  1  0.250000  0.326246  0.673754  0  .  1
   K  K8  1  0.750000  0.673754  0.326246  0  .  1
   Fe  Fe9  1  0.000000  0.856083  0.856083  0  .  1
   Fe  Fe10  1  0.500000  0.143917  0.143917  0  .  1
   Fe  Fe11  1  0.000000  0.143917  0.143917  0  .  1
   Fe  Fe12  1  0.500000  0.856083  0.856083  0  .  1
 
