#\#CIF1.1
##########################################################################
#               Crystallographic Information Format file 
#               Produced by PyCifRW module
# 
#  This is a CIF file.  CIF has been adopted by the International
#  Union of Crystallography as the standard for data archiving and 
#  transmission.
#
#  For information on this file format, follow the CIF links at
#  http://www.iucr.org
##########################################################################

data_KFeSe2
_symmetry_space_group_name_H-M          'P 1'
_cell_length_a                          5.6190296411
_cell_length_b                          6.90853393014
_cell_length_c                          6.90853393789
_cell_angle_alpha                       116.003842727
_cell_angle_beta                        101.695561982
_cell_angle_gamma                       101.695561864
_chemical_name_systematic               'Generated by pymatgen'
_symmetry_Int_Tables_number             1
_chemical_formula_structural            KFeSe2
_chemical_formula_sum                   'K2 Fe2 Se4'
_cell_volume                            222.699778705
_cell_formula_units_Z                   2
loop_
  _symmetry_equiv_pos_site_id
  _symmetry_equiv_pos_as_xyz
   1  'x, y, z'
 
loop_
  _atom_site_type_symbol
  _atom_site_label
  _atom_site_symmetry_multiplicity
  _atom_site_fract_x
  _atom_site_fract_y
  _atom_site_fract_z
  _atom_site_attached_hydrogens
  _atom_site_B_iso_or_equiv
  _atom_site_occupancy
   K  K1  1  0.250000  0.361926  0.638074  0  .  1
   K  K2  1  0.750000  0.638074  0.361926  0  .  1
   Fe  Fe3  1  0.250000  0.998097  0.001903  0  .  1
   Fe  Fe4  1  0.750000  0.001903  0.998097  0  .  1
   Se  Se5  1  0.900544  0.690996  0.916591  0  .  1
   Se  Se6  1  0.599456  0.083409  0.309004  0  .  1
   Se  Se7  1  0.099456  0.309004  0.083409  0  .  1
   Se  Se8  1  0.400544  0.916591  0.690996  0  .  1
 
