#\#CIF1.1
##########################################################################
#               Crystallographic Information Format file 
#               Produced by PyCifRW module
# 
#  This is a CIF file.  CIF has been adopted by the International
#  Union of Crystallography as the standard for data archiving and 
#  transmission.
#
#  For information on this file format, follow the CIF links at
#  http://www.iucr.org
##########################################################################

data_KMn4O8
_symmetry_space_group_name_H-M          'P 1'
_cell_length_a                          10.8870623331
_cell_length_b                          4.8157238143
_cell_length_c                          5.50078064757
_cell_angle_alpha                       63.2665865099
_cell_angle_beta                        47.0426036568
_cell_angle_gamma                       53.1455118433
_chemical_name_systematic               'Generated by pymatgen'
_symmetry_Int_Tables_number             1
_chemical_formula_structural            KMn4O8
_chemical_formula_sum                   'K1 Mn4 O8'
_cell_volume                            168.472711367
_cell_formula_units_Z                   1
loop_
  _symmetry_equiv_pos_site_id
  _symmetry_equiv_pos_as_xyz
   1  'x, y, z'
 
loop_
  _atom_site_type_symbol
  _atom_site_label
  _atom_site_symmetry_multiplicity
  _atom_site_fract_x
  _atom_site_fract_y
  _atom_site_fract_z
  _atom_site_attached_hydrogens
  _atom_site_B_iso_or_equiv
  _atom_site_occupancy
   K  K1  1  0.563888  0.693499  0.008913  0  .  1
   Mn  Mn2  1  0.122412  0.787904  0.006142  0  .  1
   Mn  Mn3  1  0.326732  0.179497  0.679545  0  .  1
   Mn  Mn4  1  0.030981  0.134620  0.562124  0  .  1
   Mn  Mn5  1  0.839760  0.701300  0.093267  0  .  1
   O  O6  1  0.905262  0.249487  0.014860  0  .  1
   O  O7  1  0.588462  0.881254  0.429598  0  .  1
   O  O8  1  0.822414  0.072892  0.759510  0  .  1
   O  O9  1  0.251502  0.013412  0.559149  0  .  1
   O  O10  1  0.347503  0.379063  0.867735  0  .  1
   O  O11  1  0.100369  0.639123  0.766002  0  .  1
   O  O12  1  0.945127  0.592679  0.386177  0  .  1
   O  O13  1  0.187034  0.949189  0.143630  0  .  1
 
