#\#CIF1.1
##########################################################################
#               Crystallographic Information Format file 
#               Produced by PyCifRW module
# 
#  This is a CIF file.  CIF has been adopted by the International
#  Union of Crystallography as the standard for data archiving and 
#  transmission.
#
#  For information on this file format, follow the CIF links at
#  http://www.iucr.org
##########################################################################

data_KMn6O12
_symmetry_space_group_name_H-M          'P 1'
_cell_length_a                          8.34087964435
_cell_length_b                          8.34087964435
_cell_length_c                          8.34087964435
_cell_angle_alpha                       106.390793686
_cell_angle_beta                        115.825094435
_cell_angle_gamma                       106.390793686
_chemical_name_systematic               'Generated by pymatgen'
_symmetry_Int_Tables_number             1
_chemical_formula_structural            KMn6O12
_chemical_formula_sum                   'K2 Mn12 O24'
_cell_volume                            442.532764657
_cell_formula_units_Z                   2
loop_
  _symmetry_equiv_pos_site_id
  _symmetry_equiv_pos_as_xyz
   1  'x, y, z'
 
loop_
  _atom_site_type_symbol
  _atom_site_label
  _atom_site_symmetry_multiplicity
  _atom_site_fract_x
  _atom_site_fract_y
  _atom_site_fract_z
  _atom_site_attached_hydrogens
  _atom_site_B_iso_or_equiv
  _atom_site_occupancy
   K  K1  1  0.456244  0.000000  0.456244  0  .  1
   K  K2  1  0.877090  0.000000  0.877090  0  .  1
   Mn  Mn3  1  0.833042  0.515702  0.015992  0  .  1
   Mn  Mn4  1  0.651331  0.816677  0.165826  0  .  1
   Mn  Mn5  1  0.984184  0.816677  0.498680  0  .  1
   Mn  Mn6  1  0.682002  0.183323  0.167507  0  .  1
   Mn  Mn7  1  0.834654  0.485505  0.651331  0  .  1
   Mn  Mn8  1  0.500291  0.484298  0.317341  0  .  1
   Mn  Mn9  1  0.498680  0.514495  0.682002  0  .  1
   Mn  Mn10  1  0.165826  0.514495  0.349149  0  .  1
   Mn  Mn11  1  0.317341  0.817050  0.833042  0  .  1
   Mn  Mn12  1  0.349149  0.183323  0.834654  0  .  1
   Mn  Mn13  1  0.015992  0.182950  0.500291  0  .  1
   Mn  Mn14  1  0.167507  0.485505  0.984184  0  .  1
   O  O15  1  0.831798  0.707714  0.209249  0  .  1
   O  O16  1  0.489183  0.951241  0.129704  0  .  1
   O  O17  1  0.821298  0.951875  0.463911  0  .  1
   O  O18  1  0.876058  0.375080  0.166094  0  .  1
   O  O19  1  0.791015  0.624920  0.500979  0  .  1
   O  O20  1  0.457275  0.624920  0.167239  0  .  1
   O  O21  1  0.844149  0.048759  0.203629  0  .  1
   O  O22  1  0.501535  0.292286  0.124085  0  .  1
   O  O23  1  0.832355  0.290036  0.457275  0  .  1
   O  O24  1  0.463911  0.642614  0.512036  0  .  1
   O  O25  1  0.129704  0.640520  0.178463  0  .  1
   O  O26  1  0.795391  0.640520  0.844149  0  .  1
   O  O27  1  0.203629  0.359480  0.154870  0  .  1
   O  O28  1  0.869422  0.357386  0.821298  0  .  1
   O  O29  1  0.537942  0.359480  0.489183  0  .  1
   O  O30  1  0.167239  0.709964  0.542319  0  .  1
   O  O31  1  0.500979  0.709964  0.876058  0  .  1
   O  O32  1  0.154870  0.951241  0.795391  0  .  1
   O  O33  1  0.542319  0.375080  0.832355  0  .  1
   O  O34  1  0.209249  0.377451  0.501535  0  .  1
   O  O35  1  0.124085  0.622549  0.831798  0  .  1
   O  O36  1  0.178463  0.048759  0.537942  0  .  1
   O  O37  1  0.512036  0.048125  0.869422  0  .  1
   O  O38  1  0.166094  0.290036  0.791015  0  .  1
 
