#\#CIF1.1
##########################################################################
#               Crystallographic Information Format file 
#               Produced by PyCifRW module
# 
#  This is a CIF file.  CIF has been adopted by the International
#  Union of Crystallography as the standard for data archiving and 
#  transmission.
#
#  For information on this file format, follow the CIF links at
#  http://www.iucr.org
##########################################################################

data_KMnO4
_symmetry_space_group_name_H-M          'P 1'
_cell_length_a                          6.16818313
_cell_length_b                          7.48005199
_cell_length_c                          9.0320844
_cell_angle_alpha                       90.0
_cell_angle_beta                        90.0
_cell_angle_gamma                       90.0
_chemical_name_systematic               'Generated by pymatgen'
_symmetry_Int_Tables_number             1
_chemical_formula_structural            KMnO4
_chemical_formula_sum                   'K4 Mn4 O16'
_cell_volume                            416.725295117
_cell_formula_units_Z                   4
loop_
  _symmetry_equiv_pos_site_id
  _symmetry_equiv_pos_as_xyz
   1  'x, y, z'
 
loop_
  _atom_site_type_symbol
  _atom_site_label
  _atom_site_symmetry_multiplicity
  _atom_site_fract_x
  _atom_site_fract_y
  _atom_site_fract_z
  _atom_site_attached_hydrogens
  _atom_site_B_iso_or_equiv
  _atom_site_occupancy
   K  K1  1  0.750000  0.832609  0.684345  0  .  1
   K  K2  1  0.250000  0.167391  0.315655  0  .  1
   K  K3  1  0.250000  0.332609  0.815655  0  .  1
   K  K4  1  0.750000  0.667391  0.184345  0  .  1
   Mn  Mn5  1  0.250000  0.821335  0.914405  0  .  1
   Mn  Mn6  1  0.250000  0.678665  0.414405  0  .  1
   Mn  Mn7  1  0.750000  0.321335  0.585595  0  .  1
   Mn  Mn8  1  0.750000  0.178665  0.085595  0  .  1
   O  O9  1  0.750000  0.013014  0.970562  0  .  1
   O  O10  1  0.463942  0.801887  0.436982  0  .  1
   O  O11  1  0.536058  0.301887  0.063018  0  .  1
   O  O12  1  0.963942  0.301887  0.063018  0  .  1
   O  O13  1  0.463942  0.698113  0.936982  0  .  1
   O  O14  1  0.250000  0.513014  0.529438  0  .  1
   O  O15  1  0.536058  0.198113  0.563018  0  .  1
   O  O16  1  0.250000  0.986986  0.029438  0  .  1
   O  O17  1  0.963942  0.198113  0.563018  0  .  1
   O  O18  1  0.750000  0.486986  0.470562  0  .  1
   O  O19  1  0.036058  0.698113  0.936982  0  .  1
   O  O20  1  0.250000  0.600767  0.247534  0  .  1
   O  O21  1  0.036058  0.801887  0.436982  0  .  1
   O  O22  1  0.750000  0.100767  0.252466  0  .  1
   O  O23  1  0.750000  0.399233  0.752466  0  .  1
   O  O24  1  0.250000  0.899233  0.747534  0  .  1
 
