#\#CIF1.1
##########################################################################
#               Crystallographic Information Format file 
#               Produced by PyCifRW module
# 
#  This is a CIF file.  CIF has been adopted by the International
#  Union of Crystallography as the standard for data archiving and 
#  transmission.
#
#  For information on this file format, follow the CIF links at
#  http://www.iucr.org
##########################################################################

data_KMnO2
_symmetry_space_group_name_H-M          'P 1'
_cell_length_a                          6.6847415987
_cell_length_b                          6.68474159777
_cell_length_c                          8.48540541481
_cell_angle_alpha                       52.8472251758
_cell_angle_beta                        127.152774808
_cell_angle_gamma                       152.041987691
_chemical_name_systematic               'Generated by pymatgen'
_symmetry_Int_Tables_number             1
_chemical_formula_structural            KMnO2
_chemical_formula_sum                   'K2 Mn2 O4'
_cell_volume                            139.14201419
_cell_formula_units_Z                   2
loop_
  _symmetry_equiv_pos_site_id
  _symmetry_equiv_pos_as_xyz
   1  'x, y, z'
 
loop_
  _atom_site_type_symbol
  _atom_site_label
  _atom_site_symmetry_multiplicity
  _atom_site_fract_x
  _atom_site_fract_y
  _atom_site_fract_z
  _atom_site_attached_hydrogens
  _atom_site_B_iso_or_equiv
  _atom_site_occupancy
   O  O1  1  0.872380  0.127620  0.913197  0  .  1
   O  O2  1  0.547702  0.452301  0.338378  0  .  1
   O  O3  1  0.452300  0.547702  0.661621  0  .  1
   O  O4  1  0.127621  0.872379  0.086803  0  .  1
   K  K5  1  0.170518  0.829484  0.687722  0  .  1
   K  K6  1  0.829481  0.170516  0.312277  0  .  1
   Mn  Mn7  1  0.029389  0.970611  0.187483  0  .  1
   Mn  Mn8  1  0.970610  0.029389  0.812517  0  .  1
 
