#\#CIF1.1
##########################################################################
#               Crystallographic Information Format file 
#               Produced by PyCifRW module
# 
#  This is a CIF file.  CIF has been adopted by the International
#  Union of Crystallography as the standard for data archiving and 
#  transmission.
#
#  For information on this file format, follow the CIF links at
#  http://www.iucr.org
##########################################################################

data_KTi16O32
_symmetry_space_group_name_H-M          'P 1'
_cell_length_a                          10.4157010625
_cell_length_b                          8.53661746051
_cell_length_c                          8.53623375044
_cell_angle_alpha                       74.0457341603
_cell_angle_beta                        67.9462945908
_cell_angle_gamma                       102.654238139
_chemical_name_systematic               'Generated by pymatgen'
_symmetry_Int_Tables_number             1
_chemical_formula_structural            KTi16O32
_chemical_formula_sum                   'K1 Ti16 O32'
_cell_volume                            630.587949013
_cell_formula_units_Z                   1
loop_
  _symmetry_equiv_pos_site_id
  _symmetry_equiv_pos_as_xyz
   1  'x, y, z'
 
loop_
  _atom_site_type_symbol
  _atom_site_label
  _atom_site_symmetry_multiplicity
  _atom_site_fract_x
  _atom_site_fract_y
  _atom_site_fract_z
  _atom_site_attached_hydrogens
  _atom_site_B_iso_or_equiv
  _atom_site_occupancy
   K  K1  1  0.375000  0.375000  0.000000  0  .  1
   Ti  Ti2  1  0.878109  0.354217  0.181878  0  .  1
   Ti  Ti3  1  0.628820  0.104391  0.181347  0  .  1
   Ti  Ti4  1  0.985252  0.166823  0.524090  0  .  1
   Ti  Ti5  1  0.515477  0.333143  0.475090  0  .  1
   Ti  Ti6  1  0.764748  0.583177  0.475910  0  .  1
   Ti  Ti7  1  0.263255  0.079792  0.481245  0  .  1
   Ti  Ti8  1  0.871891  0.395783  0.818122  0  .  1
   Ti  Ti9  1  0.624531  0.143040  0.815971  0  .  1
   Ti  Ti10  1  0.378365  0.854455  0.182108  0  .  1
   Ti  Ti11  1  0.125469  0.606960  0.184029  0  .  1
   Ti  Ti12  1  0.234523  0.416857  0.524910  0  .  1
   Ti  Ti13  1  0.736109  0.917666  0.522909  0  .  1
   Ti  Ti14  1  0.486745  0.670208  0.518755  0  .  1
   Ti  Ti15  1  0.013891  0.832334  0.477091  0  .  1
   Ti  Ti16  1  0.371635  0.895545  0.817892  0  .  1
   Ti  Ti17  1  0.121180  0.645609  0.818653  0  .  1
   O  O18  1  0.843247  0.208891  0.051752  0  .  1
   O  O19  1  0.873041  0.168534  0.376088  0  .  1
   O  O20  1  0.904946  0.528911  0.295365  0  .  1
   O  O21  1  0.404651  0.030504  0.294490  0  .  1
   O  O22  1  0.655176  0.278985  0.295750  0  .  1
   O  O23  1  0.845054  0.221089  0.704635  0  .  1
   O  O24  1  0.632338  0.580692  0.364985  0  .  1
   O  O25  1  0.882071  0.830431  0.365505  0  .  1
   O  O26  1  0.382733  0.331331  0.362892  0  .  1
   O  O27  1  0.134184  0.082666  0.362621  0  .  1
   O  O28  1  0.625402  0.331154  0.626014  0  .  1
   O  O29  1  0.376712  0.081473  0.624285  0  .  1
   O  O30  1  0.876959  0.581466  0.623912  0  .  1
   O  O31  1  0.593495  0.958670  0.051671  0  .  1
   O  O32  1  0.344088  0.707144  0.051356  0  .  1
   O  O33  1  0.095495  0.458191  0.051563  0  .  1
   O  O34  1  0.654505  0.291809  0.948437  0  .  1
   O  O35  1  0.405912  0.042856  0.948644  0  .  1
   O  O36  1  0.906753  0.541109  0.948248  0  .  1
   O  O37  1  0.373288  0.668527  0.375715  0  .  1
   O  O38  1  0.124598  0.418846  0.373986  0  .  1
   O  O39  1  0.623369  0.918629  0.376068  0  .  1
   O  O40  1  0.367267  0.418669  0.637108  0  .  1
   O  O41  1  0.867929  0.919569  0.634495  0  .  1
   O  O42  1  0.615816  0.667334  0.637379  0  .  1
   O  O43  1  0.117662  0.169308  0.635015  0  .  1
   O  O44  1  0.155260  0.779667  0.295164  0  .  1
   O  O45  1  0.594740  0.970333  0.704836  0  .  1
   O  O46  1  0.094824  0.471015  0.704250  0  .  1
   O  O47  1  0.345349  0.719496  0.705510  0  .  1
   O  O48  1  0.126631  0.831371  0.623932  0  .  1
   O  O49  1  0.156505  0.791330  0.948329  0  .  1
 
