#\#CIF1.1
##########################################################################
#               Crystallographic Information Format file 
#               Produced by PyCifRW module
# 
#  This is a CIF file.  CIF has been adopted by the International
#  Union of Crystallography as the standard for data archiving and 
#  transmission.
#
#  For information on this file format, follow the CIF links at
#  http://www.iucr.org
##########################################################################

data_KV3O8
_symmetry_space_group_name_H-M          'P 1'
_cell_length_a                          5.13650854476
_cell_length_b                          7.95422217362
_cell_length_c                          8.75807135
_cell_angle_alpha                       90.0
_cell_angle_beta                        90.0
_cell_angle_gamma                       100.589197991
_chemical_name_systematic               'Generated by pymatgen'
_symmetry_Int_Tables_number             1
_chemical_formula_structural            KV3O8
_chemical_formula_sum                   'K2 V6 O16'
_cell_volume                            351.734104545
_cell_formula_units_Z                   2
loop_
  _symmetry_equiv_pos_site_id
  _symmetry_equiv_pos_as_xyz
   1  'x, y, z'
 
loop_
  _atom_site_type_symbol
  _atom_site_label
  _atom_site_symmetry_multiplicity
  _atom_site_fract_x
  _atom_site_fract_y
  _atom_site_fract_z
  _atom_site_attached_hydrogens
  _atom_site_B_iso_or_equiv
  _atom_site_occupancy
   O  O1  1  0.130476  0.715684  0.394790  0  .  1
   O  O2  1  0.869524  0.284315  0.894791  0  .  1
   O  O3  1  0.869524  0.284315  0.605209  0  .  1
   O  O4  1  0.130476  0.715684  0.105210  0  .  1
   O  O5  1  0.406794  0.163234  0.446547  0  .  1
   O  O6  1  0.593207  0.836766  0.946546  0  .  1
   O  O7  1  0.593207  0.836766  0.553454  0  .  1
   O  O8  1  0.406794  0.163234  0.053454  0  .  1
   O  O9  1  0.075538  0.402296  0.250000  0  .  1
   O  O10  1  0.924463  0.597704  0.750000  0  .  1
   O  O11  1  0.601093  0.752646  0.250000  0  .  1
   O  O12  1  0.398908  0.247354  0.750000  0  .  1
   O  O13  1  0.671583  0.502220  0.409788  0  .  1
   O  O14  1  0.328418  0.497780  0.590212  0  .  1
   O  O15  1  0.328418  0.497780  0.909787  0  .  1
   O  O16  1  0.671583  0.502220  0.090213  0  .  1
   K  K17  1  0.991324  0.045083  0.250000  0  .  1
   K  K18  1  0.008677  0.954917  0.750000  0  .  1
   V  V19  1  0.077203  0.435705  0.750000  0  .  1
   V  V20  1  0.454244  0.681353  0.057878  0  .  1
   V  V21  1  0.545754  0.318646  0.557879  0  .  1
   V  V22  1  0.922796  0.564295  0.250000  0  .  1
   V  V23  1  0.545754  0.318646  0.942121  0  .  1
   V  V24  1  0.454244  0.681353  0.442122  0  .  1
 
