#\#CIF1.1
##########################################################################
#               Crystallographic Information Format file 
#               Produced by PyCifRW module
# 
#  This is a CIF file.  CIF has been adopted by the International
#  Union of Crystallography as the standard for data archiving and 
#  transmission.
#
#  For information on this file format, follow the CIF links at
#  http://www.iucr.org
##########################################################################

data_La(AsPd)2
_symmetry_space_group_name_H-M          'P 1'
_cell_length_a                          4.36694262024
_cell_length_b                          4.36694277742
_cell_length_c                          6.08292890999
_cell_angle_alpha                       111.035771139
_cell_angle_beta                        111.035771885
_cell_angle_gamma                       90.0000001609
_chemical_name_systematic               'Generated by pymatgen'
_symmetry_Int_Tables_number             1
_chemical_formula_structural            La(AsPd)2
_chemical_formula_sum                   'La1 As2 Pd2'
_cell_volume                            99.9447557933
_cell_formula_units_Z                   1
loop_
  _symmetry_equiv_pos_site_id
  _symmetry_equiv_pos_as_xyz
   1  'x, y, z'
 
loop_
  _atom_site_type_symbol
  _atom_site_label
  _atom_site_symmetry_multiplicity
  _atom_site_fract_x
  _atom_site_fract_y
  _atom_site_fract_z
  _atom_site_attached_hydrogens
  _atom_site_B_iso_or_equiv
  _atom_site_occupancy
   La  La1  1  0.000000  0.000000  0.000000  0  .  1
   As  As2  1  0.378728  0.378728  0.757456  0  .  1
   As  As3  1  0.621272  0.621272  0.242544  0  .  1
   Pd  Pd4  1  0.750000  0.250000  0.500000  0  .  1
   Pd  Pd5  1  0.250000  0.750000  0.500000  0  .  1
 
