#\#CIF1.1
##########################################################################
#               Crystallographic Information Format file 
#               Produced by PyCifRW module
# 
#  This is a CIF file.  CIF has been adopted by the International
#  Union of Crystallography as the standard for data archiving and 
#  transmission.
#
#  For information on this file format, follow the CIF links at
#  http://www.iucr.org
##########################################################################

data_La12Ni6O25
_symmetry_space_group_name_H-M          'P 1'
_cell_length_a                          5.59190851067
_cell_length_b                          5.48932600373
_cell_length_c                          20.7942420865
_cell_angle_alpha                       89.9761050639
_cell_angle_beta                        113.750303492
_cell_angle_gamma                       90.019564557
_chemical_name_systematic               'Generated by pymatgen'
_symmetry_Int_Tables_number             1
_chemical_formula_structural            La12Ni6O25
_chemical_formula_sum                   'La12 Ni6 O25'
_cell_volume                            584.238305353
_cell_formula_units_Z                   1
loop_
  _symmetry_equiv_pos_site_id
  _symmetry_equiv_pos_as_xyz
   1  'x, y, z'
 
loop_
  _atom_site_type_symbol
  _atom_site_label
  _atom_site_symmetry_multiplicity
  _atom_site_fract_x
  _atom_site_fract_y
  _atom_site_fract_z
  _atom_site_attached_hydrogens
  _atom_site_B_iso_or_equiv
  _atom_site_occupancy
   La  La1  1  0.142905  0.489851  0.760328  0  .  1
   La  La2  1  0.335323  0.996687  0.909235  0  .  1
   La  La3  1  0.113420  0.491001  0.427539  0  .  1
   La  La4  1  0.366824  0.992209  0.576349  0  .  1
   La  La5  1  0.616297  0.009466  0.760343  0  .  1
   La  La6  1  0.867428  0.492427  0.909294  0  .  1
   La  La7  1  0.128492  0.494628  0.098946  0  .  1
   La  La8  1  0.337008  0.996929  0.237789  0  .  1
   La  La9  1  0.644454  0.013119  0.427607  0  .  1
   La  La10  1  0.839757  0.512001  0.576409  0  .  1
   La  La11  1  0.636117  0.995518  0.099086  0  .  1
   La  La12  1  0.842511  0.493397  0.237554  0  .  1
   Ni  Ni13  1  0.491552  0.501717  0.668314  0  .  1
   Ni  Ni14  1  0.984111  0.989915  1.002357  0  .  1
   Ni  Ni15  1  0.482465  0.505074  0.334584  0  .  1
   Ni  Ni16  1  0.991951  0.000647  0.668349  0  .  1
   Ni  Ni17  1  0.494598  0.499065  1.002414  0  .  1
   Ni  Ni18  1  0.993441  -0.005233  0.334631  0  .  1
   O  O19  1  0.217710  0.026421  0.784938  0  .  1
   O  O20  1  0.251965  0.503698  0.879185  0  .  1
   O  O21  1  0.237002  0.752083  0.664580  0  .  1
   O  O22  1  0.220369  0.251984  0.654530  0  .  1
   O  O23  1  0.365937  0.534298  0.551780  0  .  1
   O  O24  1  0.614607  0.472355  0.784839  0  .  1
   O  O25  1  0.860013  0.993566  0.879352  0  .  1
   O  O26  1  0.278421  0.752925  0.359708  0  .  1
   O  O27  1  0.246262  0.252574  0.341882  0  .  1
   O  O28  1  0.081239  0.945164  0.110355  0  .  1
   O  O29  1  0.763773  0.750456  0.682575  0  .  1
   O  O30  1  0.746420  0.250829  0.671694  0  .  1
   O  O31  1  0.260177  0.551372  0.226549  0  .  1
   O  O32  1  0.722901  0.468807  0.457553  0  .  1
   O  O33  1  0.767144  0.969468  0.551906  0  .  1
   O  O34  1  0.484011  0.244924  0.167824  0  .  1
   O  O35  1  0.243096  0.744330  0.004929  0  .  1
   O  O36  1  0.241370  0.244178  1.003390  0  .  1
   O  O37  1  0.124232  0.033359  0.457581  0  .  1
   O  O38  1  0.743103  0.747463  0.336363  0  .  1
   O  O39  1  0.728877  0.247987  0.329789  0  .  1
   O  O40  1  0.718166  0.541703  0.110753  0  .  1
   O  O41  1  0.889872  -0.053436  0.226475  0  .  1
   O  O42  1  0.706096  0.743827  0.979651  0  .  1
   O  O43  1  0.723580  0.244246  -0.007978  0  .  1
 
