#\#CIF1.1
##########################################################################
#               Crystallographic Information Format file 
#               Produced by PyCifRW module
# 
#  This is a CIF file.  CIF has been adopted by the International
#  Union of Crystallography as the standard for data archiving and 
#  transmission.
#
#  For information on this file format, follow the CIF links at
#  http://www.iucr.org
##########################################################################

data_La12Mn11O36
_symmetry_space_group_name_H-M          'P 1'
_cell_length_a                          11.2839701207
_cell_length_b                          7.96556948271
_cell_length_c                          23.59096318
_cell_angle_alpha                       90.0
_cell_angle_beta                        90.0
_cell_angle_gamma                       44.4330383853
_chemical_name_systematic               'Generated by pymatgen'
_symmetry_Int_Tables_number             1
_chemical_formula_structural            La12Mn11O36
_chemical_formula_sum                   'La24 Mn22 O72'
_cell_volume                            1484.46215324
_cell_formula_units_Z                   2
loop_
  _symmetry_equiv_pos_site_id
  _symmetry_equiv_pos_as_xyz
   1  'x, y, z'
 
loop_
  _atom_site_type_symbol
  _atom_site_label
  _atom_site_symmetry_multiplicity
  _atom_site_fract_x
  _atom_site_fract_y
  _atom_site_fract_z
  _atom_site_attached_hydrogens
  _atom_site_B_iso_or_equiv
  _atom_site_occupancy
   La  La1  1  0.010837  0.507290  0.084913  0  .  1
   La  La2  1  0.010384  0.509467  0.415700  0  .  1
   La  La3  1  0.031181  0.511740  0.744027  0  .  1
   La  La4  1  0.485254  0.989792  0.247723  0  .  1
   La  La5  1  0.466139  0.024401  0.587377  0  .  1
   La  La6  1  0.481322  0.007707  0.918100  0  .  1
   La  La7  1  0.018678  0.992293  0.415234  0  .  1
   La  La8  1  0.014746  0.010208  0.085610  0  .  1
   La  La9  1  0.033861  0.975599  0.745956  0  .  1
   La  La10  1  0.489163  0.492710  0.248420  0  .  1
   La  La11  1  0.468819  0.488260  0.589306  0  .  1
   La  La12  1  0.489616  0.490533  0.917634  0  .  1
   La  La13  1  0.531181  0.511740  0.089306  0  .  1
   La  La14  1  0.510384  0.509467  0.417634  0  .  1
   La  La15  1  0.510837  0.507290  0.748420  0  .  1
   La  La16  1  0.966139  0.024401  0.245956  0  .  1
   La  La17  1  0.985254  0.989792  0.585610  0  .  1
   La  La18  1  0.981322  0.007707  0.915234  0  .  1
   La  La19  1  0.518678  0.992293  0.418100  0  .  1
   La  La20  1  0.533861  0.975599  0.087377  0  .  1
   La  La21  1  0.514746  0.010208  0.747723  0  .  1
   La  La22  1  0.968819  0.488260  0.244027  0  .  1
   La  La23  1  0.989163  0.492710  0.584913  0  .  1
   La  La24  1  0.989616  0.490533  0.915700  0  .  1
   Mn  Mn25  1  0.250000  0.000000  0.166667  0  .  1
   Mn  Mn26  1  0.246414  0.000319  0.500393  0  .  1
   Mn  Mn27  1  0.253586  0.999681  0.832940  0  .  1
   Mn  Mn28  1  0.253639  0.996312  0.000221  0  .  1
   Mn  Mn29  1  0.246361  0.003688  0.333112  0  .  1
   Mn  Mn30  1  0.250000  0.000000  0.666667  0  .  1
   Mn  Mn31  1  0.246918  0.500426  0.330901  0  .  1
   Mn  Mn32  1  0.250000  0.500000  0.166667  0  .  1
   Mn  Mn33  1  0.253082  0.499574  0.002432  0  .  1
   Mn  Mn34  1  0.246041  0.501080  0.498059  0  .  1
   Mn  Mn35  1  0.253959  0.498920  0.835274  0  .  1
   Mn  Mn36  1  0.753639  0.996312  0.833112  0  .  1
   Mn  Mn37  1  0.750000  0.000000  0.166667  0  .  1
   Mn  Mn38  1  0.746361  0.003688  0.500221  0  .  1
   Mn  Mn39  1  0.750000  0.000000  0.666667  0  .  1
   Mn  Mn40  1  0.753586  0.999681  0.000393  0  .  1
   Mn  Mn41  1  0.746414  0.000319  0.332940  0  .  1
   Mn  Mn42  1  0.746918  0.500426  0.502432  0  .  1
   Mn  Mn43  1  0.753082  0.499574  0.830901  0  .  1
   Mn  Mn44  1  0.753959  0.498920  0.998059  0  .  1
   Mn  Mn45  1  0.746041  0.501080  0.335274  0  .  1
   Mn  Mn46  1  0.750000  0.500000  0.666667  0  .  1
   O  O47  1  0.199344  0.079144  0.084263  0  .  1
   O  O48  1  0.201431  0.077438  0.417197  0  .  1
   O  O49  1  0.207862  0.079317  0.749571  0  .  1
   O  O50  1  0.211092  0.280099  0.318276  0  .  1
   O  O51  1  0.204493  0.288334  0.179728  0  .  1
   O  O52  1  0.215390  0.280107  0.512110  0  .  1
   O  O53  1  0.210505  0.270283  0.653194  0  .  1
   O  O54  1  0.224929  0.277200  0.848749  0  .  1
   O  O55  1  0.219892  0.274827  0.985537  0  .  1
   O  O56  1  0.001829  0.776803  0.347099  0  .  1
   O  O57  1  0.981599  0.812725  0.679917  0  .  1
   O  O58  1  0.007314  0.777896  0.014697  0  .  1
   O  O59  1  -0.000810  0.795284  0.154185  0  .  1
   O  O60  1  0.003761  0.783262  0.820396  0  .  1
   O  O61  1  0.997253  0.782063  0.483827  0  .  1
   O  O62  1  0.278916  0.420916  0.416697  0  .  1
   O  O63  1  0.279349  0.415878  0.085121  0  .  1
   O  O64  1  0.284161  0.431646  0.757602  0  .  1
   O  O65  1  0.220651  0.584122  0.248212  0  .  1
   O  O66  1  0.215839  0.568354  0.575731  0  .  1
   O  O67  1  0.221084  0.579084  0.916637  0  .  1
   O  O68  1  0.492686  0.222104  0.318636  0  .  1
   O  O69  1  0.500810  0.204716  0.179148  0  .  1
   O  O70  1  0.502747  0.217937  0.849507  0  .  1
   O  O71  1  0.496239  0.216738  0.512937  0  .  1
   O  O72  1  0.518401  0.187275  0.653416  0  .  1
   O  O73  1  0.498171  0.223197  0.986235  0  .  1
   O  O74  1  0.280108  0.725173  0.347797  0  .  1
   O  O75  1  0.288908  0.719901  0.015057  0  .  1
   O  O76  1  0.295507  0.711666  0.153605  0  .  1
   O  O77  1  0.275071  0.722800  0.484585  0  .  1
   O  O78  1  0.289495  0.729717  0.680139  0  .  1
   O  O79  1  0.284610  0.719893  0.821223  0  .  1
   O  O80  1  0.699344  0.079144  0.749070  0  .  1
   O  O81  1  0.707862  0.079317  0.083762  0  .  1
   O  O82  1  0.701431  0.077438  0.416137  0  .  1
   O  O83  1  0.300656  0.920856  0.249070  0  .  1
   O  O84  1  0.292138  0.920683  0.583762  0  .  1
   O  O85  1  0.298569  0.922562  0.916137  0  .  1
   O  O86  1  0.715390  0.280107  0.321223  0  .  1
   O  O87  1  0.710505  0.270283  0.180139  0  .  1
   O  O88  1  0.711092  0.280099  0.515057  0  .  1
   O  O89  1  0.704493  0.288334  0.653605  0  .  1
   O  O90  1  0.719892  0.274827  0.847797  0  .  1
   O  O91  1  0.724929  0.277200  0.984585  0  .  1
   O  O92  1  0.503761  0.783262  0.012937  0  .  1
   O  O93  1  0.481599  0.812725  0.153416  0  .  1
   O  O94  1  0.497253  0.782063  0.349507  0  .  1
   O  O95  1  0.499190  0.795284  0.679148  0  .  1
   O  O96  1  0.507314  0.777896  0.818636  0  .  1
   O  O97  1  0.501829  0.776803  0.486235  0  .  1
   O  O98  1  0.778916  0.420916  0.416637  0  .  1
   O  O99  1  0.779349  0.415878  0.748212  0  .  1
   O  O100  1  0.784161  0.431646  0.075731  0  .  1
   O  O101  1  0.720651  0.584122  0.585121  0  .  1
   O  O102  1  0.715839  0.568354  0.257602  0  .  1
   O  O103  1  0.721084  0.579084  0.916697  0  .  1
   O  O104  1  0.998171  0.223197  0.847099  0  .  1
   O  O105  1  0.996239  0.216738  0.320396  0  .  1
   O  O106  1  0.018401  0.187275  0.179917  0  .  1
   O  O107  1  0.992686  0.222104  0.514697  0  .  1
   O  O108  1  1.000810  0.204716  0.654185  0  .  1
   O  O109  1  0.002747  0.217937  0.983827  0  .  1
   O  O110  1  0.780108  0.725173  0.485537  0  .  1
   O  O111  1  0.775071  0.722800  0.348749  0  .  1
   O  O112  1  0.784610  0.719893  0.012110  0  .  1
   O  O113  1  0.789495  0.729717  0.153194  0  .  1
   O  O114  1  0.795507  0.711666  0.679728  0  .  1
   O  O115  1  0.788908  0.719901  0.818276  0  .  1
   O  O116  1  0.800656  0.920856  0.584263  0  .  1
   O  O117  1  0.792138  0.920683  0.249571  0  .  1
   O  O118  1  0.798569  0.922562  0.917197  0  .  1
 
