#\#CIF1.1
##########################################################################
#               Crystallographic Information Format file 
#               Produced by PyCifRW module
# 
#  This is a CIF file.  CIF has been adopted by the International
#  Union of Crystallography as the standard for data archiving and 
#  transmission.
#
#  For information on this file format, follow the CIF links at
#  http://www.iucr.org
##########################################################################

data_La14Mn16O45
_symmetry_space_group_name_H-M          'P 1'
_cell_length_a                          5.62377205603
_cell_length_b                          5.60114960312
_cell_length_c                          31.3414264247
_cell_angle_alpha                       89.410394292
_cell_angle_beta                        90.2932270203
_cell_angle_gamma                       90.3333364155
_chemical_name_systematic               'Generated by pymatgen'
_symmetry_Int_Tables_number             1
_chemical_formula_structural            La14Mn16O45
_chemical_formula_sum                   'La14 Mn16 O45'
_cell_volume                            987.160431729
_cell_formula_units_Z                   1
loop_
  _symmetry_equiv_pos_site_id
  _symmetry_equiv_pos_as_xyz
   1  'x, y, z'
 
loop_
  _atom_site_type_symbol
  _atom_site_label
  _atom_site_symmetry_multiplicity
  _atom_site_fract_x
  _atom_site_fract_y
  _atom_site_fract_z
  _atom_site_attached_hydrogens
  _atom_site_B_iso_or_equiv
  _atom_site_occupancy
   La  La1  1  0.992268  0.977674  0.176321  0  .  1
   La  La2  1  0.002784  0.987823  0.427645  0  .  1
   La  La3  1  0.007720  0.970025  0.687362  0  .  1
   La  La4  1  0.009339  0.975679  0.946485  0  .  1
   La  La5  1  0.494412  0.486949  0.433319  0  .  1
   La  La6  1  0.516465  0.484229  0.184985  0  .  1
   La  La7  1  0.490683  0.469365  0.687528  0  .  1
   La  La8  1  0.497278  0.475837  0.941726  0  .  1
   La  La9  1  0.520380  0.528444  0.061839  0  .  1
   La  La10  1  0.514179  0.535225  0.313746  0  .  1
   La  La11  1  0.507643  0.531583  0.814899  0  .  1
   La  La12  1  0.506170  0.533098  0.559817  0  .  1
   La  La13  1  0.991311  0.030975  0.816078  0  .  1
   La  La14  1  0.989937  0.032652  0.558764  0  .  1
   Mn  Mn15  1  0.003325  0.486028  0.125871  0  .  1
   Mn  Mn16  1  0.994992  0.503494  0.373445  0  .  1
   Mn  Mn17  1  0.998476  0.501119  0.623774  0  .  1
   Mn  Mn18  1  0.001204  0.500666  0.877554  0  .  1
   Mn  Mn19  1  -0.000175  0.490295  0.001475  0  .  1
   Mn  Mn20  1  0.985210  0.507513  0.250209  0  .  1
   Mn  Mn21  1  0.998603  0.505468  0.497227  0  .  1
   Mn  Mn22  1  0.998490  0.501133  0.751302  0  .  1
   Mn  Mn23  1  0.501024  0.011632  0.369073  0  .  1
   Mn  Mn24  1  0.497183  -0.000256  0.123013  0  .  1
   Mn  Mn25  1  0.509734  0.997836  0.005248  0  .  1
   Mn  Mn26  1  0.498759  0.001437  0.623578  0  .  1
   Mn  Mn27  1  0.527897  0.995058  0.252977  0  .  1
   Mn  Mn28  1  0.496926  0.000347  0.878321  0  .  1
   Mn  Mn29  1  0.499571  0.000592  0.751335  0  .  1
   Mn  Mn30  1  0.493962  0.004679  0.496302  0  .  1
   O  O31  1  0.078679  0.485173  0.559087  0  .  1
   O  O32  1  0.080241  0.484101  0.815629  0  .  1
   O  O33  1  0.213016  0.221128  0.485592  0  .  1
   O  O34  1  0.221800  0.218284  0.739866  0  .  1
   O  O35  1  0.237966  0.240801  0.993164  0  .  1
   O  O36  1  0.240126  0.235415  0.132532  0  .  1
   O  O37  1  0.238740  0.258922  0.381586  0  .  1
   O  O38  1  0.217714  0.219063  0.634885  0  .  1
   O  O39  1  0.214132  0.215968  0.888969  0  .  1
   O  O40  1  0.293319  0.668789  0.245203  0  .  1
   O  O41  1  0.263810  0.718204  0.134202  0  .  1
   O  O42  1  0.262927  0.731564  0.379948  0  .  1
   O  O43  1  0.276305  0.723064  0.486973  0  .  1
   O  O44  1  0.281408  0.718069  0.634829  0  .  1
   O  O45  1  0.279354  0.717917  0.887892  0  .  1
   O  O46  1  0.279373  0.718049  0.739990  0  .  1
   O  O47  1  0.273027  0.712927  0.994437  0  .  1
   O  O48  1  0.445892  0.956181  0.063895  0  .  1
   O  O49  1  0.420459  0.011560  0.309197  0  .  1
   O  O50  1  0.420568  0.987094  0.814933  0  .  1
   O  O51  1  0.419313  0.988869  0.560350  0  .  1
   O  O52  1  0.570210  0.013468  0.432982  0  .  1
   O  O53  1  0.580232  0.016755  0.687298  0  .  1
   O  O54  1  0.543203  0.021730  0.189876  0  .  1
   O  O55  1  0.576969  0.009986  0.941233  0  .  1
   O  O56  1  0.725174  0.284970  0.010474  0  .  1
   O  O57  1  0.727520  0.278655  0.118420  0  .  1
   O  O58  1  0.694818  0.309922  0.257357  0  .  1
   O  O59  1  0.720105  0.283511  0.762210  0  .  1
   O  O60  1  0.718670  0.282725  0.866528  0  .  1
   O  O61  1  0.731461  0.285371  0.365458  0  .  1
   O  O62  1  0.716466  0.285702  0.508137  0  .  1
   O  O63  1  0.717040  0.284716  0.612954  0  .  1
   O  O64  1  0.761383  0.746319  0.126896  0  .  1
   O  O65  1  0.777260  0.778594  0.866163  0  .  1
   O  O66  1  0.771747  0.742950  0.010858  0  .  1
   O  O67  1  0.788767  0.775803  0.258563  0  .  1
   O  O68  1  0.755629  0.750860  0.364387  0  .  1
   O  O69  1  0.781867  0.784566  0.612859  0  .  1
   O  O70  1  0.778501  0.783945  0.762303  0  .  1
   O  O71  1  0.772438  0.782184  0.508754  0  .  1
   O  O72  1  0.964196  0.441098  0.189751  0  .  1
   O  O73  1  0.921518  0.515726  0.687706  0  .  1
   O  O74  1  0.926810  0.513521  0.937149  0  .  1
   O  O75  1  0.923197  0.522379  0.437633  0  .  1
 
