#\#CIF1.1
##########################################################################
#               Crystallographic Information Format file 
#               Produced by PyCifRW module
# 
#  This is a CIF file.  CIF has been adopted by the International
#  Union of Crystallography as the standard for data archiving and 
#  transmission.
#
#  For information on this file format, follow the CIF links at
#  http://www.iucr.org
##########################################################################

data_La14Mn15O48
_symmetry_space_group_name_H-M          'P 1'
_cell_length_a                          5.47494061396
_cell_length_b                          10.9656897529
_cell_length_c                          25.057102366
_cell_angle_alpha                       49.8911316275
_cell_angle_beta                        57.6189759883
_cell_angle_gamma                       60.86664684
_chemical_name_systematic               'Generated by pymatgen'
_symmetry_Int_Tables_number             1
_chemical_formula_structural            La14Mn15O48
_chemical_formula_sum                   'La14 Mn15 O48'
_cell_volume                            947.935428201
_cell_formula_units_Z                   1
loop_
  _symmetry_equiv_pos_site_id
  _symmetry_equiv_pos_as_xyz
   1  'x, y, z'
 
loop_
  _atom_site_type_symbol
  _atom_site_label
  _atom_site_symmetry_multiplicity
  _atom_site_fract_x
  _atom_site_fract_y
  _atom_site_fract_z
  _atom_site_attached_hydrogens
  _atom_site_B_iso_or_equiv
  _atom_site_occupancy
   La  La1  1  0.265061  0.083569  0.059757  0  .  1
   La  La2  1  0.238300  0.609989  0.060477  0  .  1
   La  La3  1  0.236050  0.472482  0.313796  0  .  1
   La  La4  1  0.751907  0.264537  0.193738  0  .  1
   La  La5  1  0.254689  0.328543  0.567602  0  .  1
   La  La6  1  0.743646  0.796233  0.182625  0  .  1
   La  La7  1  0.750859  0.148904  0.438107  0  .  1
   La  La8  1  0.256354  0.203767  0.817375  0  .  1
   La  La9  1  0.249141  0.851096  0.561893  0  .  1
   La  La10  1  0.745311  0.671458  0.432398  0  .  1
   La  La11  1  0.248093  0.735463  0.806262  0  .  1
   La  La12  1  0.763950  0.527518  0.686204  0  .  1
   La  La13  1  0.761700  0.390011  0.939523  0  .  1
   La  La14  1  0.734939  0.916431  0.940243  0  .  1
   Mn  Mn15  1  0.000000  0.500000  0.000000  0  .  1
   Mn  Mn16  1  0.002999  0.371093  0.250690  0  .  1
   Mn  Mn17  1  0.491381  0.190404  0.125852  0  .  1
   Mn  Mn18  1  0.999019  0.249076  0.501340  0  .  1
   Mn  Mn19  1  0.991599  0.877918  0.251787  0  .  1
   Mn  Mn20  1  0.501734  0.061161  0.373529  0  .  1
   Mn  Mn21  1  0.496644  0.683950  0.127438  0  .  1
   Mn  Mn22  1  0.008401  0.122082  0.748213  0  .  1
   Mn  Mn23  1  0.000981  0.750924  0.498660  0  .  1
   Mn  Mn24  1  0.496483  0.567454  0.374051  0  .  1
   Mn  Mn25  1  0.997001  0.628907  0.749310  0  .  1
   Mn  Mn26  1  0.503517  0.432546  0.625949  0  .  1
   Mn  Mn27  1  0.498266  0.938839  0.626471  0  .  1
   Mn  Mn28  1  0.503356  0.316050  0.872562  0  .  1
   Mn  Mn29  1  0.508619  0.809596  0.874148  0  .  1
   O  O30  1  0.177184  0.340060  0.077701  0  .  1
   O  O31  1  0.296596  0.013422  0.178644  0  .  1
   O  O32  1  0.239969  0.263271  0.196681  0  .  1
   O  O33  1  0.727714  0.132792  0.054350  0  .  1
   O  O34  1  0.212620  0.819382  0.081067  0  .  1
   O  O35  1  0.184724  0.230787  0.325305  0  .  1
   O  O36  1  0.682395  0.381482  0.060814  0  .  1
   O  O37  1  0.320484  0.493432  0.190425  0  .  1
   O  O38  1  0.805954  0.042063  0.170803  0  .  1
   O  O39  1  0.240970  0.131300  0.448186  0  .  1
   O  O40  1  0.251986  0.746060  0.200292  0  .  1
   O  O41  1  0.753388  0.632778  0.046688  0  .  1
   O  O42  1  0.201618  0.698519  0.326130  0  .  1
   O  O43  1  0.236759  0.089776  0.565219  0  .  1
   O  O44  1  0.689692  0.254348  0.310729  0  .  1
   O  O45  1  0.685604  0.855217  0.068886  0  .  1
   O  O46  1  0.310245  0.378356  0.435440  0  .  1
   O  O47  1  0.811417  0.541211  0.173529  0  .  1
   O  O48  1  0.253691  0.004504  0.697393  0  .  1
   O  O49  1  0.245461  0.612896  0.454499  0  .  1
   O  O50  1  0.750803  0.509001  0.295301  0  .  1
   O  O51  1  0.204060  0.584877  0.575241  0  .  1
   O  O52  1  0.728376  0.727278  0.313720  0  .  1
   O  O53  1  0.708056  0.122321  0.554401  0  .  1
   O  O54  1  0.271624  0.272722  0.686280  0  .  1
   O  O55  1  0.291944  0.877679  0.445599  0  .  1
   O  O56  1  0.795940  0.415123  0.424759  0  .  1
   O  O57  1  0.249197  0.490999  0.704699  0  .  1
   O  O58  1  0.754539  0.387104  0.545501  0  .  1
   O  O59  1  0.746309  0.995496  0.302607  0  .  1
   O  O60  1  0.188583  0.458789  0.826471  0  .  1
   O  O61  1  0.689755  0.621644  0.564560  0  .  1
   O  O62  1  0.314396  0.144783  0.931114  0  .  1
   O  O63  1  0.310308  0.745652  0.689271  0  .  1
   O  O64  1  0.798382  0.301481  0.673870  0  .  1
   O  O65  1  0.763241  0.910224  0.434781  0  .  1
   O  O66  1  0.246612  0.367222  0.953312  0  .  1
   O  O67  1  0.748014  0.253940  0.799708  0  .  1
   O  O68  1  0.759030  0.868700  0.551814  0  .  1
   O  O69  1  0.194046  0.957937  0.829197  0  .  1
   O  O70  1  0.679516  0.506568  0.809575  0  .  1
   O  O71  1  0.317605  0.618518  0.939186  0  .  1
   O  O72  1  0.787380  0.180618  0.918933  0  .  1
   O  O73  1  0.815276  0.769213  0.674695  0  .  1
   O  O74  1  0.272286  0.867208  0.945650  0  .  1
   O  O75  1  0.760031  0.736729  0.803319  0  .  1
   O  O76  1  0.703404  0.986578  0.821356  0  .  1
   O  O77  1  0.822816  0.659940  0.922299  0  .  1
 
