#\#CIF1.1
##########################################################################
#               Crystallographic Information Format file 
#               Produced by PyCifRW module
# 
#  This is a CIF file.  CIF has been adopted by the International
#  Union of Crystallography as the standard for data archiving and 
#  transmission.
#
#  For information on this file format, follow the CIF links at
#  http://www.iucr.org
##########################################################################

data_La14Mn13O42
_symmetry_space_group_name_H-M          'P 1'
_cell_length_a                          9.68085974115
_cell_length_b                          9.68085969729
_cell_length_c                          9.68085991867
_cell_angle_alpha                       100.239670279
_cell_angle_beta                        79.7603321745
_cell_angle_gamma                       79.760325554
_chemical_name_systematic               'Generated by pymatgen'
_symmetry_Int_Tables_number             1
_chemical_formula_structural            La14Mn13O42
_chemical_formula_sum                   'La14 Mn13 O42'
_cell_volume                            857.830411307
_cell_formula_units_Z                   1
loop_
  _symmetry_equiv_pos_site_id
  _symmetry_equiv_pos_as_xyz
   1  'x, y, z'
 
loop_
  _atom_site_type_symbol
  _atom_site_label
  _atom_site_symmetry_multiplicity
  _atom_site_fract_x
  _atom_site_fract_y
  _atom_site_fract_z
  _atom_site_attached_hydrogens
  _atom_site_B_iso_or_equiv
  _atom_site_occupancy
   La  La1  1  0.034591  0.107732  0.677866  0  .  1
   La  La2  1  0.108266  0.320839  0.036420  0  .  1
   La  La3  1  0.177982  0.535008  0.393981  0  .  1
   La  La4  1  0.392151  0.177448  0.463696  0  .  1
   La  La5  1  0.465977  0.407474  0.824607  0  .  1
   La  La6  1  0.340122  0.945593  0.088450  0  .  1
   La  La7  1  0.264617  0.746822  0.751691  0  .  1
   La  La8  1  0.750706  0.251123  0.250589  0  .  1
   La  La9  1  0.676880  0.021098  0.889679  0  .  1
   La  La10  1  0.538893  0.608834  0.163955  0  .  1
   La  La11  1  0.603964  0.819737  0.550331  0  .  1
   La  La12  1  0.802735  0.482979  0.625836  0  .  1
   La  La13  1  0.878240  0.681750  0.962594  0  .  1
   La  La14  1  0.964875  0.893563  0.320305  0  .  1
   Mn  Mn15  1  0.000377  0.000826  0.999998  0  .  1
   Mn  Mn16  1  0.071429  0.214286  0.357143  0  .  1
   Mn  Mn17  1  0.210765  0.642497  0.072065  0  .  1
   Mn  Mn18  1  0.428573  0.285337  0.143683  0  .  1
   Mn  Mn19  1  0.356507  0.074949  0.785355  0  .  1
   Mn  Mn20  1  0.142480  0.427746  0.714288  0  .  1
   Mn  Mn21  1  0.284889  0.857141  0.428194  0  .  1
   Mn  Mn22  1  0.499640  0.499364  0.496480  0  .  1
   Mn  Mn23  1  0.714284  0.143234  0.570603  0  .  1
   Mn  Mn24  1  0.643217  0.929208  0.217806  0  .  1
   Mn  Mn25  1  0.857969  0.571431  0.286091  0  .  1
   Mn  Mn26  1  0.786350  0.353623  0.928931  0  .  1
   Mn  Mn27  1  0.932092  0.786074  0.642221  0  .  1
   O  O28  1  0.042351  0.137521  0.160336  0  .  1
   O  O29  1  0.148194  0.017479  0.386220  0  .  1
   O  O30  1  0.100506  0.291051  0.553950  0  .  1
   O  O31  1  0.016250  0.618894  0.145337  0  .  1
   O  O32  1  0.158607  0.049908  0.865420  0  .  1
   O  O33  1  0.268235  0.243363  0.280378  0  .  1
   O  O34  1  0.290106  0.445941  0.101224  0  .  1
   O  O35  1  0.006405  0.588650  0.669635  0  .  1
   O  O36  1  0.563152  0.127107  0.192765  0  .  1
   O  O37  1  0.283234  0.269464  0.761752  0  .  1
   O  O38  1  0.136452  0.839922  0.044651  0  .  1
   O  O39  1  0.587630  0.334298  0.009655  0  .  1
   O  O40  1  0.303084  0.470205  0.575820  0  .  1
   O  O41  1  0.383920  0.149262  0.982779  0  .  1
   O  O42  1  0.235806  0.722563  0.269965  0  .  1
   O  O43  1  0.666820  0.002480  0.412321  0  .  1
   O  O44  1  0.476037  0.426092  0.301965  0  .  1
   O  O45  1  0.191441  0.561774  0.873345  0  .  1
   O  O46  1  0.555227  0.094274  0.704631  0  .  1
   O  O47  1  0.126607  0.809677  0.568949  0  .  1
   O  O48  1  0.579705  0.301464  0.521520  0  .  1
   O  O49  1  0.418916  0.698084  0.477155  0  .  1
   O  O50  1  0.445793  0.901794  0.292119  0  .  1
   O  O51  1  0.521724  0.576329  0.683269  0  .  1
   O  O52  1  0.874622  0.185208  0.433908  0  .  1
   O  O53  1  0.815510  0.432963  0.125487  0  .  1
   O  O54  1  0.327348  0.995608  0.588798  0  .  1
   O  O55  1  0.758937  0.279309  0.731507  0  .  1
   O  O56  1  0.621133  0.852242  0.031017  0  .  1
   O  O57  1  0.697065  0.526778  0.422166  0  .  1
   O  O58  1  0.397554  0.664581  0.995099  0  .  1
   O  O59  1  0.859623  0.159108  0.952534  0  .  1
   O  O60  1  0.723941  0.730488  0.237131  0  .  1
   O  O61  1  0.433472  0.888160  0.807438  0  .  1
   O  O62  1  0.994663  0.411092  0.328066  0  .  1
   O  O63  1  0.709385  0.540411  0.906847  0  .  1
   O  O64  1  0.745303  0.763990  0.719186  0  .  1
   O  O65  1  0.839773  0.958367  0.138465  0  .  1
   O  O66  1  0.907051  0.706009  0.444321  0  .  1
   O  O67  1  0.984250  0.378663  0.848866  0  .  1
   O  O68  1  0.852751  0.982630  0.613062  0  .  1
   O  O69  1  0.951416  0.866798  0.840941  0  .  1
 
