#\#CIF1.1
##########################################################################
#               Crystallographic Information Format file 
#               Produced by PyCifRW module
# 
#  This is a CIF file.  CIF has been adopted by the International
#  Union of Crystallography as the standard for data archiving and 
#  transmission.
#
#  For information on this file format, follow the CIF links at
#  http://www.iucr.org
##########################################################################

data_La15Mn16O48
_symmetry_space_group_name_H-M          'P 1'
_cell_length_a                          5.53128834984
_cell_length_b                          14.7796506439
_cell_length_c                          12.4147678695
_cell_angle_alpha                       94.5374442113
_cell_angle_beta                        102.008679921
_cell_angle_gamma                       79.4550723453
_chemical_name_systematic               'Generated by pymatgen'
_symmetry_Int_Tables_number             1
_chemical_formula_structural            La15Mn16O48
_chemical_formula_sum                   'La15 Mn16 O48'
_cell_volume                            975.049267474
_cell_formula_units_Z                   1
loop_
  _symmetry_equiv_pos_site_id
  _symmetry_equiv_pos_as_xyz
   1  'x, y, z'
 
loop_
  _atom_site_type_symbol
  _atom_site_label
  _atom_site_symmetry_multiplicity
  _atom_site_fract_x
  _atom_site_fract_y
  _atom_site_fract_z
  _atom_site_attached_hydrogens
  _atom_site_B_iso_or_equiv
  _atom_site_occupancy
   La  La1  1  0.972031  0.846446  0.785332  0  .  1
   La  La2  1  0.779931  0.908444  0.457956  0  .  1
   La  La3  1  0.905113  0.532158  0.343151  0  .  1
   La  La4  1  0.717840  0.596240  0.031774  0  .  1
   La  La5  1  0.842150  0.216697  0.906918  0  .  1
   La  La6  1  0.530995  0.658474  0.718677  0  .  1
   La  La7  1  0.657251  0.279571  0.593089  0  .  1
   La  La8  1  0.470859  0.337411  0.279276  0  .  1
   La  La9  1  0.336878  0.723494  0.402415  0  .  1
   La  La10  1  0.151739  0.793605  0.097459  0  .  1
   La  La11  1  0.281181  0.404769  0.969282  0  .  1
   La  La12  1  0.408246  0.028179  0.855216  0  .  1
   La  La13  1  0.222851  0.091591  0.531534  0  .  1
   La  La14  1  0.093504  0.468931  0.656024  0  .  1
   La  La15  1  0.035545  0.144371  0.215417  0  .  1
   Mn  Mn16  1  0.936063  0.687972  0.562478  0  .  1
   Mn  Mn17  1  0.875199  0.374538  0.124623  0  .  1
   Mn  Mn18  1  0.749841  0.752298  0.249344  0  .  1
   Mn  Mn19  1  0.813097  0.062115  0.687649  0  .  1
   Mn  Mn20  1  0.561201  0.814254  0.939298  0  .  1
   Mn  Mn21  1  0.686920  0.437696  0.812420  0  .  1
   Mn  Mn22  1  0.376460  0.875464  0.624984  0  .  1
   Mn  Mn23  1  0.621853  0.123775  0.372150  0  .  1
   Mn  Mn24  1  0.499243  0.500078  0.499240  0  .  1
   Mn  Mn25  1  0.187496  0.938049  0.309172  0  .  1
   Mn  Mn26  1  0.442024  0.185357  0.064557  0  .  1
   Mn  Mn27  1  0.311817  0.562753  0.186873  0  .  1
   Mn  Mn28  1  0.125998  0.625578  0.876437  0  .  1
   Mn  Mn29  1  0.249693  0.249226  0.750040  0  .  1
   Mn  Mn30  1  0.062717  0.311866  0.437547  0  .  1
   Mn  Mn31  1  0.000340  0.999028  0.003377  0  .  1
   O  O32  1  0.951650  0.849593  0.277349  0  .  1
   O  O33  1  0.960218  0.368850  0.288933  0  .  1
   O  O34  1  0.834533  0.741047  0.414590  0  .  1
   O  O35  1  0.664684  0.756124  0.085339  0  .  1
   O  O36  1  0.830363  0.888356  0.970032  0  .  1
   O  O37  1  0.957119  0.514709  0.860585  0  .  1
   O  O38  1  0.696728  0.788028  0.619560  0  .  1
   O  O39  1  0.946026  0.039194  0.369632  0  .  1
   O  O40  1  0.822498  0.414422  0.494090  0  .  1
   O  O41  1  0.580118  0.638273  0.233640  0  .  1
   O  O42  1  0.706052  0.265129  0.108694  0  .  1
   O  O43  1  0.928587  0.335986  0.755132  0  .  1
   O  O44  1  0.803474  0.708871  0.881931  0  .  1
   O  O45  1  0.668910  0.609890  0.514373  0  .  1
   O  O46  1  0.546211  0.984668  0.641493  0  .  1
   O  O47  1  0.794521  0.234593  0.394768  0  .  1
   O  O48  1  0.430104  0.828253  0.268129  0  .  1
   O  O49  1  0.687687  0.096132  0.000382  0  .  1
   O  O50  1  0.553297  0.460317  0.131318  0  .  1
   O  O51  1  0.788223  0.382207  0.960327  0  .  1
   O  O52  1  0.909716  0.010597  0.833863  0  .  1
   O  O53  1  0.461579  0.866183  0.787207  0  .  1
   O  O54  1  0.715593  0.117519  0.541608  0  .  1
   O  O55  1  0.584476  0.494351  0.664276  0  .  1
   O  O56  1  0.415168  0.504946  0.335458  0  .  1
   O  O57  1  0.292139  0.884955  0.463063  0  .  1
   O  O58  1  0.533711  0.148102  0.215785  0  .  1
   O  O59  1  0.087526  0.987425  0.163044  0  .  1
   O  O60  1  0.209065  0.621572  0.039739  0  .  1
   O  O61  1  0.444757  0.540087  0.869066  0  .  1
   O  O62  1  0.572565  0.166244  0.740785  0  .  1
   O  O63  1  0.295304  0.910284  0.975767  0  .  1
   O  O64  1  0.206643  0.764700  0.608760  0  .  1
   O  O65  1  0.330628  0.389359  0.485961  0  .  1
   O  O66  1  0.439508  0.022041  0.372108  0  .  1
   O  O67  1  0.066857  0.661676  0.243239  0  .  1
   O  O68  1  0.197132  0.290856  0.113836  0  .  1
   O  O69  1  0.418315  0.360333  0.764972  0  .  1
   O  O70  1  0.300410  0.732837  0.887870  0  .  1
   O  O71  1  0.050548  0.960248  0.630009  0  .  1
   O  O72  1  0.175928  0.583939  0.507443  0  .  1
   O  O73  1  0.302086  0.210626  0.383480  0  .  1
   O  O74  1  0.046240  0.485749  0.138953  0  .  1
   O  O75  1  0.171391  0.110310  0.013986  0  .  1
   O  O76  1  0.332658  0.243946  0.913268  0  .  1
   O  O77  1  0.165529  0.256803  0.587553  0  .  1
   O  O78  1  0.039861  0.631138  0.711150  0  .  1
   O  O79  1  0.083034  0.139190  0.737658  0  .  1
 
