#\#CIF1.1
##########################################################################
#               Crystallographic Information Format file 
#               Produced by PyCifRW module
# 
#  This is a CIF file.  CIF has been adopted by the International
#  Union of Crystallography as the standard for data archiving and 
#  transmission.
#
#  For information on this file format, follow the CIF links at
#  http://www.iucr.org
##########################################################################

data_La16Mn15O48
_symmetry_space_group_name_H-M          'P 1'
_cell_length_a                          7.9004763838
_cell_length_b                          7.89078515487
_cell_length_c                          15.7802370075
_cell_angle_alpha                       89.850679415
_cell_angle_beta                        90.054857459
_cell_angle_gamma                       89.9004513194
_chemical_name_systematic               'Generated by pymatgen'
_symmetry_Int_Tables_number             1
_chemical_formula_structural            La16Mn15O48
_chemical_formula_sum                   'La16 Mn15 O48'
_cell_volume                            983.749871112
_cell_formula_units_Z                   1
loop_
  _symmetry_equiv_pos_site_id
  _symmetry_equiv_pos_as_xyz
   1  'x, y, z'
 
loop_
  _atom_site_type_symbol
  _atom_site_label
  _atom_site_symmetry_multiplicity
  _atom_site_fract_x
  _atom_site_fract_y
  _atom_site_fract_z
  _atom_site_attached_hydrogens
  _atom_site_B_iso_or_equiv
  _atom_site_occupancy
   La  La1  1  0.003274  0.474578  0.881612  0  .  1
   La  La2  1  0.010327  0.484709  0.374577  0  .  1
   La  La3  1  0.489673  0.015291  0.625423  0  .  1
   La  La4  1  0.496726  0.025422  0.118388  0  .  1
   La  La5  1  0.984185  0.007854  0.625962  0  .  1
   La  La6  1  0.489588  0.501117  0.120391  0  .  1
   La  La7  1  0.482131  0.510043  0.626839  0  .  1
   La  La8  1  0.965213  0.025172  0.116534  0  .  1
   La  La9  1  0.017869  0.989957  0.373161  0  .  1
   La  La10  1  0.534787  0.474827  0.883466  0  .  1
   La  La11  1  0.515815  0.492146  0.374038  0  .  1
   La  La12  1  0.010412  0.998883  0.879609  0  .  1
   La  La13  1  0.507481  0.981933  0.372543  0  .  1
   La  La14  1  0.518721  0.991685  0.879644  0  .  1
   La  La15  1  0.992519  0.518067  0.627457  0  .  1
   La  La16  1  0.981279  0.508315  0.120356  0  .  1
   Mn  Mn17  1  0.250000  0.250000  0.000000  0  .  1
   Mn  Mn18  1  0.250000  0.250000  0.500000  0  .  1
   Mn  Mn19  1  0.251213  0.249489  0.750711  0  .  1
   Mn  Mn20  1  0.248787  0.250511  0.249289  0  .  1
   Mn  Mn21  1  0.250000  0.750000  0.000000  0  .  1
   Mn  Mn22  1  0.249568  0.750112  0.246374  0  .  1
   Mn  Mn23  1  0.750907  0.249336  0.748257  0  .  1
   Mn  Mn24  1  0.250000  0.750000  0.500000  0  .  1
   Mn  Mn25  1  0.250432  0.749888  0.753626  0  .  1
   Mn  Mn26  1  0.750000  0.250000  0.500000  0  .  1
   Mn  Mn27  1  0.749093  0.250664  0.251743  0  .  1
   Mn  Mn28  1  0.748351  0.749620  0.750784  0  .  1
   Mn  Mn29  1  0.750000  0.750000  0.500000  0  .  1
   Mn  Mn30  1  0.750000  0.750000  0.000000  0  .  1
   Mn  Mn31  1  0.751649  0.750380  0.249216  0  .  1
   O  O32  1  0.999450  0.228610  0.274343  0  .  1
   O  O33  1  0.001506  0.226074  0.769485  0  .  1
   O  O34  1  0.016454  0.225401  0.980469  0  .  1
   O  O35  1  0.001829  0.226261  0.478372  0  .  1
   O  O36  1  0.212913  0.208241  0.124955  0  .  1
   O  O37  1  0.217510  0.205645  0.625319  0  .  1
   O  O38  1  0.287087  0.291759  0.875045  0  .  1
   O  O39  1  0.282490  0.294355  0.374681  0  .  1
   O  O40  1  0.728084  0.000875  0.725481  0  .  1
   O  O41  1  0.727533  0.000832  0.521507  0  .  1
   O  O42  1  0.221338  0.502051  0.019362  0  .  1
   O  O43  1  0.225611  0.500685  0.228400  0  .  1
   O  O44  1  0.719553  0.983355  0.019688  0  .  1
   O  O45  1  0.724926  0.001567  0.229871  0  .  1
   O  O46  1  0.226291  0.500582  0.520866  0  .  1
   O  O47  1  0.227682  0.500651  0.728670  0  .  1
   O  O48  1  0.483546  0.274599  0.019531  0  .  1
   O  O49  1  0.498494  0.273926  0.230516  0  .  1
   O  O50  1  0.500550  0.271390  0.725657  0  .  1
   O  O51  1  0.498171  0.273739  0.521628  0  .  1
   O  O52  1  0.207830  0.718397  0.373380  0  .  1
   O  O53  1  0.711338  0.216528  0.863872  0  .  1
   O  O54  1  0.702100  0.215636  0.372880  0  .  1
   O  O55  1  0.196967  0.719773  0.876620  0  .  1
   O  O56  1  0.788662  0.283472  0.136128  0  .  1
   O  O57  1  0.303033  0.780227  0.123380  0  .  1
   O  O58  1  0.797900  0.284364  0.627120  0  .  1
   O  O59  1  0.292170  0.781603  0.626620  0  .  1
   O  O60  1  0.499276  0.719567  0.979668  0  .  1
   O  O61  1  0.500423  0.724796  0.772226  0  .  1
   O  O62  1  0.501148  0.727213  0.271634  0  .  1
   O  O63  1  0.499746  0.727338  0.479417  0  .  1
   O  O64  1  0.775074  0.498433  0.770129  0  .  1
   O  O65  1  0.771916  0.499125  0.274519  0  .  1
   O  O66  1  0.772467  0.499168  0.478493  0  .  1
   O  O67  1  0.780447  0.516645  0.980312  0  .  1
   O  O68  1  0.272318  0.999349  0.271330  0  .  1
   O  O69  1  0.278662  0.997949  0.980638  0  .  1
   O  O70  1  0.273709  0.999418  0.479134  0  .  1
   O  O71  1  0.274389  0.999315  0.771600  0  .  1
   O  O72  1  0.720487  0.700757  0.125080  0  .  1
   O  O73  1  0.717025  0.705717  0.625311  0  .  1
   O  O74  1  0.782975  0.794283  0.374689  0  .  1
   O  O75  1  0.779513  0.799243  0.874920  0  .  1
   O  O76  1  0.000724  0.780433  0.020332  0  .  1
   O  O77  1  -0.000423  0.775204  0.227774  0  .  1
   O  O78  1  0.998852  0.772787  0.728366  0  .  1
   O  O79  1  0.000254  0.772662  0.520583  0  .  1
 
