#\#CIF1.1
##########################################################################
#               Crystallographic Information Format file 
#               Produced by PyCifRW module
# 
#  This is a CIF file.  CIF has been adopted by the International
#  Union of Crystallography as the standard for data archiving and 
#  transmission.
#
#  For information on this file format, follow the CIF links at
#  http://www.iucr.org
##########################################################################

data_La18Ni12O41
_symmetry_space_group_name_H-M          'P 1'
_cell_length_a                          11.8299537446
_cell_length_b                          7.78940574434
_cell_length_c                          11.8299537446
_cell_angle_alpha                       81.0238265345
_cell_angle_beta                        62.7472540408
_cell_angle_gamma                       98.9761734655
_chemical_name_systematic               'Generated by pymatgen'
_symmetry_Int_Tables_number             1
_chemical_formula_structural            La18Ni12O41
_chemical_formula_sum                   'La18 Ni12 O41'
_cell_volume                            924.55948429
_cell_formula_units_Z                   1
loop_
  _symmetry_equiv_pos_site_id
  _symmetry_equiv_pos_as_xyz
   1  'x, y, z'
 
loop_
  _atom_site_type_symbol
  _atom_site_label
  _atom_site_symmetry_multiplicity
  _atom_site_fract_x
  _atom_site_fract_y
  _atom_site_fract_z
  _atom_site_attached_hydrogens
  _atom_site_B_iso_or_equiv
  _atom_site_occupancy
   La  La1  1  0.816871  0.240011  0.825823  0  .  1
   La  La2  1  0.824344  0.759117  0.815688  0  .  1
   La  La3  1  0.509314  0.909536  0.848510  0  .  1
   La  La4  1  0.517432  0.423779  0.840897  0  .  1
   La  La5  1  0.847978  0.089506  0.510346  0  .  1
   La  La6  1  0.842224  0.575451  0.518191  0  .  1
   La  La7  1  0.997712  0.752568  0.002288  0  .  1
   La  La8  1  0.673664  0.066213  0.326336  0  .  1
   La  La9  1  0.322318  0.893240  0.677682  0  .  1
   La  La10  1  0.324283  0.424581  0.675717  0  .  1
   La  La11  1  0.668089  0.592307  0.331911  0  .  1
   La  La12  1  0.001721  0.255307  0.998279  0  .  1
   La  La13  1  0.151490  0.909536  0.490686  0  .  1
   La  La14  1  0.481809  0.575451  0.157776  0  .  1
   La  La15  1  0.159103  0.423779  0.482568  0  .  1
   La  La16  1  0.489654  0.089506  0.152022  0  .  1
   La  La17  1  0.174177  0.240011  0.183129  0  .  1
   La  La18  1  0.184312  0.759117  0.175656  0  .  1
   Ni  Ni19  1  0.263672  0.582154  0.934374  0  .  1
   Ni  Ni20  1  0.932939  0.915052  0.265351  0  .  1
   Ni  Ni21  1  0.597879  0.250819  0.596282  0  .  1
   Ni  Ni22  1  0.598061  0.751218  0.595305  0  .  1
   Ni  Ni23  1  0.265047  0.085292  0.927552  0  .  1
   Ni  Ni24  1  0.929593  0.417723  0.264290  0  .  1
   Ni  Ni25  1  0.072447  0.085292  0.734953  0  .  1
   Ni  Ni26  1  0.065626  0.582154  0.736328  0  .  1
   Ni  Ni27  1  0.734649  0.915052  0.067061  0  .  1
   Ni  Ni28  1  0.403718  0.250819  0.402121  0  .  1
   Ni  Ni29  1  0.735710  0.417723  0.070407  0  .  1
   Ni  Ni30  1  0.404695  0.751218  0.401939  0  .  1
   O  O31  1  0.913165  0.001418  0.908718  0  .  1
   O  O32  1  0.883893  0.497372  0.894318  0  .  1
   O  O33  1  0.646458  0.947154  0.942525  0  .  1
   O  O34  1  0.979009  0.619902  0.611486  0  .  1
   O  O35  1  0.951647  0.048704  0.638613  0  .  1
   O  O36  1  0.605219  0.380778  0.983905  0  .  1
   O  O37  1  0.722109  0.284898  0.692091  0  .  1
   O  O38  1  0.686540  0.717545  0.723089  0  .  1
   O  O39  1  0.436200  0.167190  0.761730  0  .  1
   O  O40  1  0.276998  0.328740  0.940750  0  .  1
   O  O41  1  0.778891  0.833762  0.442669  0  .  1
   O  O42  1  0.602752  0.009808  0.603014  0  .  1
   O  O43  1  0.939863  0.652901  0.278011  0  .  1
   O  O44  1  0.580541  0.489129  0.584683  0  .  1
   O  O45  1  0.252048  0.838301  0.919114  0  .  1
   O  O46  1  0.419703  0.667942  0.754401  0  .  1
   O  O47  1  0.922583  0.179528  0.252949  0  .  1
   O  O48  1  0.747471  0.330277  0.417971  0  .  1
   O  O49  1  0.147322  0.542217  0.852678  0  .  1
   O  O50  1  0.811927  0.879800  0.188073  0  .  1
   O  O51  1  0.181609  0.125674  0.818391  0  .  1
   O  O52  1  0.527382  0.793680  0.472618  0  .  1
   O  O53  1  0.861946  0.465938  0.138054  0  .  1
   O  O54  1  0.415317  0.489129  0.419459  0  .  1
   O  O55  1  0.747051  0.179528  0.077417  0  .  1
   O  O56  1  0.245599  0.667942  0.580297  0  .  1
   O  O57  1  0.582029  0.330277  0.252529  0  .  1
   O  O58  1  0.080886  0.838301  0.747952  0  .  1
   O  O59  1  0.238270  0.167190  0.563800  0  .  1
   O  O60  1  0.557330  0.833762  0.221109  0  .  1
   O  O61  1  0.059250  0.328740  0.723002  0  .  1
   O  O62  1  0.396986  0.009808  0.397248  0  .  1
   O  O63  1  0.721989  0.652901  0.060137  0  .  1
   O  O64  1  0.307909  0.284898  0.277891  0  .  1
   O  O65  1  0.276911  0.717545  0.313460  0  .  1
   O  O66  1  0.057475  0.947154  0.353542  0  .  1
   O  O67  1  0.388514  0.619902  0.020990  0  .  1
   O  O68  1  0.016095  0.380778  0.394781  0  .  1
   O  O69  1  0.361387  0.048704  0.048353  0  .  1
   O  O70  1  0.105682  0.497372  0.116107  0  .  1
   O  O71  1  0.091282  0.001418  0.086835  0  .  1
 
