#\#CIF1.1
##########################################################################
#               Crystallographic Information Format file 
#               Produced by PyCifRW module
# 
#  This is a CIF file.  CIF has been adopted by the International
#  Union of Crystallography as the standard for data archiving and 
#  transmission.
#
#  For information on this file format, follow the CIF links at
#  http://www.iucr.org
##########################################################################

data_La20Cu9O40
_symmetry_space_group_name_H-M          'P 1'
_cell_length_a                          10.3655168175
_cell_length_b                          11.6871553879
_cell_length_c                          8.9435031414
_cell_angle_alpha                       70.3191770396
_cell_angle_beta                        103.708940585
_cell_angle_gamma                       79.9896700099
_chemical_name_systematic               'Generated by pymatgen'
_symmetry_Int_Tables_number             1
_chemical_formula_structural            La20Cu9O40
_chemical_formula_sum                   'La20 Cu9 O40'
_cell_volume                            952.233149697
_cell_formula_units_Z                   1
loop_
  _symmetry_equiv_pos_site_id
  _symmetry_equiv_pos_as_xyz
   1  'x, y, z'
 
loop_
  _atom_site_type_symbol
  _atom_site_label
  _atom_site_symmetry_multiplicity
  _atom_site_fract_x
  _atom_site_fract_y
  _atom_site_fract_z
  _atom_site_attached_hydrogens
  _atom_site_B_iso_or_equiv
  _atom_site_occupancy
   La  La1  1  0.013931  0.112700  0.623302  0  .  1
   La  La2  1  0.413679  0.311029  0.820590  0  .  1
   La  La3  1  0.785656  0.288838  0.777792  0  .  1
   La  La4  1  0.382252  0.081155  0.573591  0  .  1
   La  La5  1  0.186321  0.488971  0.979410  0  .  1
   La  La6  1  0.097288  0.170896  0.196615  0  .  1
   La  La7  1  0.489800  0.380074  0.390006  0  .  1
   La  La8  1  0.290240  0.783524  0.779940  0  .  1
   La  La9  1  0.689798  0.979665  0.991493  0  .  1
   La  La10  1  0.888752  0.581277  0.588242  0  .  1
   La  La11  1  0.110200  0.419926  0.409994  0  .  1
   La  La12  1  0.502712  0.629104  0.603385  0  .  1
   La  La13  1  0.910202  0.820335  0.808507  0  .  1
   La  La14  1  0.309760  0.016476  0.020060  0  .  1
   La  La15  1  0.711248  0.218723  0.211758  0  .  1
   La  La16  1  0.217748  0.718845  0.226409  0  .  1
   La  La17  1  0.603896  0.911476  0.419987  0  .  1
   La  La18  1  0.814344  0.511162  0.022208  0  .  1
   La  La19  1  0.996104  0.888524  0.380013  0  .  1
   La  La20  1  0.586069  0.687300  0.176698  0  .  1
   Cu  Cu21  1  0.700112  0.098956  0.600549  0  .  1
   Cu  Cu22  1  0.100629  0.299761  0.800507  0  .  1
   Cu  Cu23  1  0.999463  0.999927  0.999086  0  .  1
   Cu  Cu24  1  0.199776  0.599820  0.600737  0  .  1
   Cu  Cu25  1  0.400224  0.200180  0.199263  0  .  1
   Cu  Cu26  1  0.600537  0.800073  0.800914  0  .  1
   Cu  Cu27  1  0.800000  0.400000  0.400000  0  .  1
   Cu  Cu28  1  0.499371  0.500239  0.999493  0  .  1
   Cu  Cu29  1  0.899888  0.701044  0.199451  0  .  1
   O  O30  1  0.844801  0.054042  0.807168  0  .  1
   O  O31  1  0.043713  0.153559  0.905898  0  .  1
   O  O32  1  0.254750  0.174899  0.711787  0  .  1
   O  O33  1  0.655225  0.373316  0.914639  0  .  1
   O  O34  1  0.143105  0.027180  0.489980  0  .  1
   O  O35  1  0.547526  0.225787  0.688240  0  .  1
   O  O36  1  0.944775  0.426684  0.885361  0  .  1
   O  O37  1  0.355628  0.545593  0.794903  0  .  1
   O  O38  1  0.755990  0.245642  0.495539  0  .  1
   O  O39  1  0.556287  0.646441  0.894102  0  .  1
   O  O40  1  0.156515  0.446976  0.694582  0  .  1
   O  O41  1  0.356440  0.050211  0.292629  0  .  1
   O  O42  1  0.755199  0.745958  0.992832  0  .  1
   O  O43  1  0.955887  0.345356  0.595590  0  .  1
   O  O44  1  0.554907  0.145051  0.395267  0  .  1
   O  O45  1  0.858856  0.095650  0.134144  0  .  1
   O  O46  1  0.659716  0.495535  0.534151  0  .  1
   O  O47  1  0.460046  0.895845  0.936671  0  .  1
   O  O48  1  0.259552  0.296620  0.333851  0  .  1
   O  O49  1  0.058837  0.694158  0.735345  0  .  1
   O  O50  1  0.139954  0.904155  0.863329  0  .  1
   O  O51  1  0.340448  0.503380  0.466149  0  .  1
   O  O52  1  0.541163  0.105842  0.064655  0  .  1
   O  O53  1  0.741144  0.704350  0.665856  0  .  1
   O  O54  1  0.940284  0.304465  0.265849  0  .  1
   O  O55  1  0.244372  0.254407  0.005097  0  .  1
   O  O56  1  0.045093  0.654949  0.404733  0  .  1
   O  O57  1  0.644113  0.454644  0.204410  0  .  1
   O  O58  1  0.243560  0.749789  0.507371  0  .  1
   O  O59  1  0.844010  0.554358  0.304461  0  .  1
   O  O60  1  0.449375  0.851584  0.610910  0  .  1
   O  O61  1  0.642935  0.953685  0.704748  0  .  1
   O  O62  1  0.443485  0.353024  0.105418  0  .  1
   O  O63  1  0.052474  0.574213  0.111760  0  .  1
   O  O64  1  0.856818  0.974608  0.514092  0  .  1
   O  O65  1  0.456895  0.772820  0.310020  0  .  1
   O  O66  1  0.345250  0.625101  0.088213  0  .  1
   O  O67  1  0.743182  0.825392  0.285908  0  .  1
   O  O68  1  0.150625  0.948416  0.189090  0  .  1
   O  O69  1  0.957065  0.846315  0.095252  0  .  1
 
