#\#CIF1.1
##########################################################################
#               Crystallographic Information Format file 
#               Produced by PyCifRW module
# 
#  This is a CIF file.  CIF has been adopted by the International
#  Union of Crystallography as the standard for data archiving and 
#  transmission.
#
#  For information on this file format, follow the CIF links at
#  http://www.iucr.org
##########################################################################

data_La2CuO4
_symmetry_space_group_name_H-M          'P 1'
_cell_length_a                          3.80588883495
_cell_length_b                          3.80588884029
_cell_length_c                          7.12560462002
_cell_angle_alpha                       105.489231232
_cell_angle_beta                        105.489231193
_cell_angle_gamma                       90.0000000489
_chemical_name_systematic               'Generated by pymatgen'
_symmetry_Int_Tables_number             1
_chemical_formula_structural            La2CuO4
_chemical_formula_sum                   'La2 Cu1 O4'
_cell_volume                            95.5687139762
_cell_formula_units_Z                   1
loop_
  _symmetry_equiv_pos_site_id
  _symmetry_equiv_pos_as_xyz
   1  'x, y, z'
 
loop_
  _atom_site_type_symbol
  _atom_site_label
  _atom_site_symmetry_multiplicity
  _atom_site_fract_x
  _atom_site_fract_y
  _atom_site_fract_z
  _atom_site_attached_hydrogens
  _atom_site_B_iso_or_equiv
  _atom_site_occupancy
   O  O1  1  0.813883  0.813883  0.627767  0  .  1
   O  O2  1  0.186117  0.186117  0.372233  0  .  1
   O  O3  1  0.000000  0.500000  0.000000  0  .  1
   O  O4  1  0.500000  0.000000  0.000000  0  .  1
   Cu  Cu5  1  0.000000  0.000000  0.000000  0  .  1
   La  La6  1  0.638998  0.638998  0.277996  0  .  1
   La  La7  1  0.361002  0.361002  0.722004  0  .  1
 
