#\#CIF1.1
##########################################################################
#               Crystallographic Information Format file 
#               Produced by PyCifRW module
# 
#  This is a CIF file.  CIF has been adopted by the International
#  Union of Crystallography as the standard for data archiving and 
#  transmission.
#
#  For information on this file format, follow the CIF links at
#  http://www.iucr.org
##########################################################################

data_La2Cu2O5
_symmetry_space_group_name_H-M          'P 1'
_cell_length_a                          3.76783150331
_cell_length_b                          7.2158616713
_cell_length_c                          27.0019692005
_cell_angle_alpha                       87.2384865922
_cell_angle_beta                        85.9567903581
_cell_angle_gamma                       74.8461958609
_chemical_name_systematic               'Generated by pymatgen'
_symmetry_Int_Tables_number             1
_chemical_formula_structural            La2Cu2O5
_chemical_formula_sum                   'La12 Cu12 O30'
_cell_volume                            706.50496678
_cell_formula_units_Z                   6
loop_
  _symmetry_equiv_pos_site_id
  _symmetry_equiv_pos_as_xyz
   1  'x, y, z'
 
loop_
  _atom_site_type_symbol
  _atom_site_label
  _atom_site_symmetry_multiplicity
  _atom_site_fract_x
  _atom_site_fract_y
  _atom_site_fract_z
  _atom_site_attached_hydrogens
  _atom_site_B_iso_or_equiv
  _atom_site_occupancy
   La  La1  1  0.368941  0.491952  0.231151  0  .  1
   La  La2  1  0.129228  0.847505  0.402755  0  .  1
   La  La3  1  0.628075  0.509020  0.768407  0  .  1
   La  La4  1  0.085938  0.006085  0.268606  0  .  1
   La  La5  1  0.636701  0.674423  0.635001  0  .  1
   La  La6  1  0.910921  0.992629  0.732125  0  .  1
   La  La7  1  0.861213  0.154658  0.597439  0  .  1
   La  La8  1  0.384009  0.651273  0.097097  0  .  1
   La  La9  1  0.064351  0.172089  0.134326  0  .  1
   La  La10  1  0.371259  0.326183  0.365235  0  .  1
   La  La11  1  0.940944  0.826789  0.865863  0  .  1
   La  La12  1  0.622500  0.347596  0.902266  0  .  1
   Cu  Cu13  1  0.740531  0.665372  0.319401  0  .  1
   Cu  Cu14  1  0.743949  0.980819  0.039927  0  .  1
   Cu  Cu15  1  0.564015  0.161595  0.471130  0  .  1
   Cu  Cu16  1  0.802891  0.657194  0.971155  0  .  1
   Cu  Cu17  1  0.431193  0.840971  0.529122  0  .  1
   Cu  Cu18  1  0.269486  0.167806  0.819762  0  .  1
   Cu  Cu19  1  0.723174  0.834404  0.180775  0  .  1
   Cu  Cu20  1  0.772178  0.516350  0.460374  0  .  1
   Cu  Cu21  1  0.260583  0.330736  0.681194  0  .  1
   Cu  Cu22  1  0.228382  0.486193  0.540211  0  .  1
   Cu  Cu23  1  0.252427  0.013681  0.960369  0  .  1
   Cu  Cu24  1  0.204753  0.336161  0.028452  0  .  1
   O  O25  1  0.505349  0.680271  0.912884  0  .  1
   O  O26  1  0.262605  0.086494  0.890008  0  .  1
   O  O27  1  0.601703  0.882099  0.461360  0  .  1
   O  O28  1  0.732667  0.745449  0.249773  0  .  1
   O  O29  1  0.730204  0.911853  0.110573  0  .  1
   O  O30  1  0.222387  0.834674  0.181099  0  .  1
   O  O31  1  0.266160  0.249458  0.750320  0  .  1
   O  O32  1  0.243089  0.411784  0.611222  0  .  1
   O  O33  1  0.883699  0.493541  0.161890  0  .  1
   O  O34  1  0.770267  0.165925  0.819801  0  .  1
   O  O35  1  0.303908  0.446748  0.464232  0  .  1
   O  O36  1  0.388329  0.120932  0.538947  0  .  1
   O  O37  1  0.212138  0.046387  0.035747  0  .  1
   O  O38  1  0.544208  0.004649  0.337453  0  .  1
   O  O39  1  0.058416  0.378454  0.960697  0  .  1
   O  O40  1  0.950427  0.617703  0.038670  0  .  1
   O  O41  1  0.760335  0.587909  0.389757  0  .  1
   O  O42  1  0.453225  0.835182  0.791369  0  .  1
   O  O43  1  0.097250  0.819693  0.587420  0  .  1
   O  O44  1  0.109489  0.506624  0.837406  0  .  1
   O  O45  1  0.904058  0.180465  0.412681  0  .  1
   O  O46  1  0.458069  0.993941  0.663225  0  .  1
   O  O47  1  0.909905  0.331443  0.291116  0  .  1
   O  O48  1  0.787110  0.942624  0.964588  0  .  1
   O  O49  1  0.700092  0.549579  0.535624  0  .  1
   O  O50  1  0.498780  0.317288  0.086896  0  .  1
   O  O51  1  0.085209  0.666627  0.709212  0  .  1
   O  O52  1  0.756915  0.337728  0.681726  0  .  1
   O  O53  1  0.241566  0.663485  0.318962  0  .  1
   O  O54  1  0.533394  0.164979  0.208464  0  .  1
 
