#\#CIF1.1
##########################################################################
#               Crystallographic Information Format file 
#               Produced by PyCifRW module
# 
#  This is a CIF file.  CIF has been adopted by the International
#  Union of Crystallography as the standard for data archiving and 
#  transmission.
#
#  For information on this file format, follow the CIF links at
#  http://www.iucr.org
##########################################################################

data_La2Ni3
_symmetry_space_group_name_H-M          'P 1'
_cell_length_a                          5.03176733
_cell_length_b                          5.44293609114
_cell_length_c                          7.90308165
_cell_angle_alpha                       90.0
_cell_angle_beta                        90.0
_cell_angle_gamma                       117.531043534
_chemical_name_systematic               'Generated by pymatgen'
_symmetry_Int_Tables_number             1
_chemical_formula_structural            La2Ni3
_chemical_formula_sum                   'La4 Ni6'
_cell_volume                            191.936073176
_cell_formula_units_Z                   2
loop_
  _symmetry_equiv_pos_site_id
  _symmetry_equiv_pos_as_xyz
   1  'x, y, z'
 
loop_
  _atom_site_type_symbol
  _atom_site_label
  _atom_site_symmetry_multiplicity
  _atom_site_fract_x
  _atom_site_fract_y
  _atom_site_fract_z
  _atom_site_attached_hydrogens
  _atom_site_B_iso_or_equiv
  _atom_site_occupancy
   Ni  Ni1  1  0.500000  0.000000  0.500000  0  .  1
   Ni  Ni2  1  0.000000  0.000000  0.000000  0  .  1
   Ni  Ni3  1  0.657866  0.815731  0.750000  0  .  1
   Ni  Ni4  1  0.842134  0.184269  0.250000  0  .  1
   Ni  Ni5  1  0.157866  0.815731  0.750000  0  .  1
   Ni  Ni6  1  0.342134  0.184269  0.250000  0  .  1
   La  La7  1  0.153932  0.307864  0.595151  0  .  1
   La  La8  1  0.846068  0.692136  0.404849  0  .  1
   La  La9  1  0.346068  0.692136  0.095151  0  .  1
   La  La10  1  0.653932  0.307864  0.904849  0  .  1
 
