#\#CIF1.1
##########################################################################
#               Crystallographic Information Format file 
#               Produced by PyCifRW module
# 
#  This is a CIF file.  CIF has been adopted by the International
#  Union of Crystallography as the standard for data archiving and 
#  transmission.
#
#  For information on this file format, follow the CIF links at
#  http://www.iucr.org
##########################################################################

data_La2Se3
_symmetry_space_group_name_H-M          'P 1'
_cell_length_a                          23.6338496403
_cell_length_b                          9.10708164343
_cell_length_c                          9.10708122371
_cell_angle_alpha                       89.999997497
_cell_angle_beta                        54.6892403505
_cell_angle_gamma                       54.6892422105
_chemical_name_systematic               'Generated by pymatgen'
_symmetry_Int_Tables_number             1
_chemical_formula_structural            La2Se3
_chemical_formula_sum                   'La16 Se24'
_cell_volume                            1129.10835578
_cell_formula_units_Z                   8
loop_
  _symmetry_equiv_pos_site_id
  _symmetry_equiv_pos_as_xyz
   1  'x, y, z'
 
loop_
  _atom_site_type_symbol
  _atom_site_label
  _atom_site_symmetry_multiplicity
  _atom_site_fract_x
  _atom_site_fract_y
  _atom_site_fract_z
  _atom_site_attached_hydrogens
  _atom_site_B_iso_or_equiv
  _atom_site_occupancy
   La  La1  1  0.995457  0.120310  0.764117  0  .  1
   La  La2  1  0.083921  0.624119  0.374119  0  .  1
   La  La3  1  0.166667  0.250000  0.629945  0  .  1
   La  La4  1  0.249412  0.875881  0.125881  0  .  1
   La  La5  1  0.337875  0.379690  0.250489  0  .  1
   La  La6  1  0.166667  0.750000  0.870055  0  .  1
   La  La7  1  0.337875  0.106682  0.735883  0  .  1
   La  La8  1  0.495457  0.264117  0.620310  0  .  1
   La  La9  1  0.666667  0.370055  0.250000  0  .  1
   La  La10  1  0.583921  0.874119  0.124119  0  .  1
   La  La11  1  0.666667  0.129945  0.750000  0  .  1
   La  La12  1  0.495457  0.749511  0.893318  0  .  1
   La  La13  1  0.749412  0.625881  0.375881  0  .  1
   La  La14  1  0.837875  0.235883  0.606682  0  .  1
   La  La15  1  0.995457  0.393318  0.249511  0  .  1
   La  La16  1  0.837875  0.750489  0.879690  0  .  1
   Se  Se17  1  0.124764  0.489314  0.993226  0  .  1
   Se  Se18  1  0.050887  0.348061  0.496166  0  .  1
   Se  Se19  1  0.050887  -0.000722  0.351174  0  .  1
   Se  Se20  1  0.282446  0.151939  0.148826  0  .  1
   Se  Se21  1  0.282446  0.500722  0.003834  0  .  1
   Se  Se22  1  0.124764  0.636393  0.632481  0  .  1
   Se  Se23  1  0.208569  0.010686  0.867519  0  .  1
   Se  Se24  1  0.208569  0.863607  0.506774  0  .  1
   Se  Se25  1  0.449057  0.495915  0.996214  0  .  1
   Se  Se26  1  0.384277  0.343385  0.504085  0  .  1
   Se  Se27  1  0.624764  0.132481  0.136393  0  .  1
   Se  Se28  1  0.384277  0.003786  0.343086  0  .  1
   Se  Se29  1  0.624764  0.493226  0.989314  0  .  1
   Se  Se30  1  0.550887  0.996166  0.848061  0  .  1
   Se  Se31  1  0.449057  0.656914  0.656615  0  .  1
   Se  Se32  1  0.550887  0.851174  0.499278  0  .  1
   Se  Se33  1  0.782446  0.503834  1.000722  0  .  1
   Se  Se34  1  0.708569  0.367519  0.510686  0  .  1
   Se  Se35  1  0.949057  0.156615  0.156914  0  .  1
   Se  Se36  1  0.708569  0.006774  0.363607  0  .  1
   Se  Se37  1  0.949057  0.496214  0.995915  0  .  1
   Se  Se38  1  0.782446  0.648826  0.651939  0  .  1
   Se  Se39  1  0.884277  0.004085  0.843385  0  .  1
   Se  Se40  1  0.884277  0.843086  0.503786  0  .  1
 
