#\#CIF1.1
##########################################################################
#               Crystallographic Information Format file 
#               Produced by PyCifRW module
# 
#  This is a CIF file.  CIF has been adopted by the International
#  Union of Crystallography as the standard for data archiving and 
#  transmission.
#
#  For information on this file format, follow the CIF links at
#  http://www.iucr.org
##########################################################################

data_La3Co3O8
_symmetry_space_group_name_H-M          'P 1'
_cell_length_a                          5.43251413
_cell_length_b                          5.65517105029
_cell_length_c                          11.7646357719
_cell_angle_alpha                       90.3654210629
_cell_angle_beta                        90.0
_cell_angle_gamma                       90.0
_chemical_name_systematic               'Generated by pymatgen'
_symmetry_Int_Tables_number             1
_chemical_formula_structural            La3Co3O8
_chemical_formula_sum                   'La6 Co6 O16'
_cell_volume                            361.423396893
_cell_formula_units_Z                   2
loop_
  _symmetry_equiv_pos_site_id
  _symmetry_equiv_pos_as_xyz
   1  'x, y, z'
 
loop_
  _atom_site_type_symbol
  _atom_site_label
  _atom_site_symmetry_multiplicity
  _atom_site_fract_x
  _atom_site_fract_y
  _atom_site_fract_z
  _atom_site_attached_hydrogens
  _atom_site_B_iso_or_equiv
  _atom_site_occupancy
   O  O1  1  0.007577  0.999108  0.306599  0  .  1
   O  O2  1  0.507577  0.000892  0.693401  0  .  1
   O  O3  1  0.495388  0.002377  0.307294  0  .  1
   O  O4  1  0.995388  0.997623  0.692706  0  .  1
   O  O5  1  0.249648  0.170035  0.491793  0  .  1
   O  O6  1  0.749648  0.829965  0.508207  0  .  1
   O  O7  1  0.007499  0.490652  0.355548  0  .  1
   O  O8  1  0.507499  0.509348  0.644452  0  .  1
   O  O9  1  0.497764  0.485757  0.355790  0  .  1
   O  O10  1  0.997764  0.514243  0.644210  0  .  1
   O  O11  1  0.230926  0.323392  0.853427  0  .  1
   O  O12  1  0.730926  0.676608  0.146573  0  .  1
   O  O13  1  0.169928  0.857471  0.999636  0  .  1
   O  O14  1  0.669928  0.142529  0.000364  0  .  1
   O  O15  1  0.740928  0.688206  0.841436  0  .  1
   O  O16  1  0.240928  0.311794  0.158564  0  .  1
   Co  Co17  1  0.250407  0.249775  0.664341  0  .  1
   Co  Co18  1  0.750407  0.750225  0.335659  0  .  1
   Co  Co19  1  0.250140  0.241974  0.332496  0  .  1
   Co  Co20  1  0.750140  0.758026  0.667504  0  .  1
   Co  Co21  1  0.298504  0.187897  0.002398  0  .  1
   Co  Co22  1  0.798504  0.812102  0.997602  0  .  1
   La  La23  1  0.249798  0.749008  0.498781  0  .  1
   La  La24  1  0.749798  0.250992  0.501219  0  .  1
   La  La25  1  0.255783  0.731557  0.188742  0  .  1
   La  La26  1  0.755783  0.268443  0.811258  0  .  1
   La  La27  1  0.252711  0.732875  0.807468  0  .  1
   La  La28  1  0.752711  0.267125  0.192532  0  .  1
 
