#\#CIF1.1
##########################################################################
#               Crystallographic Information Format file 
#               Produced by PyCifRW module
# 
#  This is a CIF file.  CIF has been adopted by the International
#  Union of Crystallography as the standard for data archiving and 
#  transmission.
#
#  For information on this file format, follow the CIF links at
#  http://www.iucr.org
##########################################################################

data_La3Fe2S7
_symmetry_space_group_name_H-M          'P 1'
_cell_length_a                          10.16383485
_cell_length_b                          10.1638344504
_cell_length_c                          5.93751903
_cell_angle_alpha                       90.0
_cell_angle_beta                        90.0
_cell_angle_gamma                       120.000001341
_chemical_name_systematic               'Generated by pymatgen'
_symmetry_Int_Tables_number             1
_chemical_formula_structural            La3Fe2S7
_chemical_formula_sum                   'La6 Fe4 S14'
_cell_volume                            531.191140082
_cell_formula_units_Z                   2
loop_
  _symmetry_equiv_pos_site_id
  _symmetry_equiv_pos_as_xyz
   1  'x, y, z'
 
loop_
  _atom_site_type_symbol
  _atom_site_label
  _atom_site_symmetry_multiplicity
  _atom_site_fract_x
  _atom_site_fract_y
  _atom_site_fract_z
  _atom_site_attached_hydrogens
  _atom_site_B_iso_or_equiv
  _atom_site_occupancy
   La  La1  1  0.625689  0.858135  0.724752  0  .  1
   La  La2  1  0.858135  0.232446  0.224752  0  .  1
   La  La3  1  0.767554  0.625689  0.224752  0  .  1
   La  La4  1  0.232446  0.374311  0.724752  0  .  1
   La  La5  1  0.141865  0.767554  0.724752  0  .  1
   La  La6  1  0.374311  0.141865  0.224752  0  .  1
   Fe  Fe7  1  0.666667  0.333333  0.638699  0  .  1
   Fe  Fe8  1  0.333333  0.666667  0.138699  0  .  1
   Fe  Fe9  1  0.000000  0.000000  0.006192  0  .  1
   Fe  Fe10  1  0.000000  0.000000  0.506192  0  .  1
   S  S11  1  0.419345  0.903567  0.004620  0  .  1
   S  S12  1  0.666667  0.333333  0.014042  0  .  1
   S  S13  1  0.903567  0.484222  0.504621  0  .  1
   S  S14  1  0.515778  0.419345  0.504621  0  .  1
   S  S15  1  0.787188  0.919467  0.259653  0  .  1
   S  S16  1  0.919467  0.132280  0.759653  0  .  1
   S  S17  1  0.867720  0.787188  0.759653  0  .  1
   S  S18  1  0.333333  0.666667  0.514042  0  .  1
   S  S19  1  0.132280  0.212812  0.259653  0  .  1
   S  S20  1  0.080533  0.867720  0.259653  0  .  1
   S  S21  1  0.212812  0.080533  0.759653  0  .  1
   S  S22  1  0.484222  0.580655  0.004620  0  .  1
   S  S23  1  0.096433  0.515778  0.004620  0  .  1
   S  S24  1  0.580655  0.096433  0.504621  0  .  1
 
