#\#CIF1.1
##########################################################################
#               Crystallographic Information Format file 
#               Produced by PyCifRW module
# 
#  This is a CIF file.  CIF has been adopted by the International
#  Union of Crystallography as the standard for data archiving and 
#  transmission.
#
#  For information on this file format, follow the CIF links at
#  http://www.iucr.org
##########################################################################

data_La3Ni2O7
_symmetry_space_group_name_H-M          'P 1'
_cell_length_a                          5.4570877
_cell_length_b                          5.60627234457
_cell_length_c                          10.5362170319
_cell_angle_alpha                       105.429215868
_cell_angle_beta                        90.0
_cell_angle_gamma                       90.0
_chemical_name_systematic               'Generated by pymatgen'
_symmetry_Int_Tables_number             1
_chemical_formula_structural            La3Ni2O7
_chemical_formula_sum                   'La6 Ni4 O14'
_cell_volume                            310.726852782
_cell_formula_units_Z                   2
loop_
  _symmetry_equiv_pos_site_id
  _symmetry_equiv_pos_as_xyz
   1  'x, y, z'
 
loop_
  _atom_site_type_symbol
  _atom_site_label
  _atom_site_symmetry_multiplicity
  _atom_site_fract_x
  _atom_site_fract_y
  _atom_site_fract_z
  _atom_site_attached_hydrogens
  _atom_site_B_iso_or_equiv
  _atom_site_occupancy
   O  O1  1  0.000000  0.914618  0.829237  0  .  1
   O  O2  1  0.500000  0.085382  0.170763  0  .  1
   O  O3  1  0.000000  0.085382  0.170763  0  .  1
   O  O4  1  0.500000  0.914618  0.829237  0  .  1
   O  O5  1  0.500000  0.388270  0.776540  0  .  1
   O  O6  1  0.000000  0.611730  0.223460  0  .  1
   O  O7  1  0.500000  0.611730  0.223460  0  .  1
   O  O8  1  0.000000  0.388270  0.776540  0  .  1
   O  O9  1  0.750000  0.987346  0.590323  0  .  1
   O  O10  1  0.250000  0.012654  0.409677  0  .  1
   O  O11  1  0.250000  0.673615  0.000000  0  .  1
   O  O12  1  0.750000  0.326385  0.000000  0  .  1
   O  O13  1  0.250000  0.602977  0.590323  0  .  1
   O  O14  1  0.750000  0.397023  0.409677  0  .  1
   Ni  Ni15  1  0.750000  0.155508  0.805100  0  .  1
   Ni  Ni16  1  0.250000  0.844492  0.194900  0  .  1
   Ni  Ni17  1  0.750000  0.350408  0.194900  0  .  1
   Ni  Ni18  1  0.250000  0.649592  0.805100  0  .  1
   La  La19  1  0.750000  0.944013  0.360583  0  .  1
   La  La20  1  0.250000  0.055987  0.639417  0  .  1
   La  La21  1  0.750000  0.583429  0.639417  0  .  1
   La  La22  1  0.250000  0.416571  0.360583  0  .  1
   La  La23  1  0.750000  0.750626  0.000000  0  .  1
   La  La24  1  0.250000  0.249374  0.000000  0  .  1
 
