#\#CIF1.1
##########################################################################
#               Crystallographic Information Format file 
#               Produced by PyCifRW module
# 
#  This is a CIF file.  CIF has been adopted by the International
#  Union of Crystallography as the standard for data archiving and 
#  transmission.
#
#  For information on this file format, follow the CIF links at
#  http://www.iucr.org
##########################################################################

data_La3Se4
_symmetry_space_group_name_H-M          'P 1'
_cell_length_a                          7.87751940419
_cell_length_b                          7.87751940407
_cell_length_c                          7.8775194
_cell_angle_alpha                       109.471220624
_cell_angle_beta                        109.471220624
_cell_angle_gamma                       109.471220646
_chemical_name_systematic               'Generated by pymatgen'
_symmetry_Int_Tables_number             1
_chemical_formula_structural            La3Se4
_chemical_formula_sum                   'La6 Se8'
_cell_volume                            376.310688488
_cell_formula_units_Z                   2
loop_
  _symmetry_equiv_pos_site_id
  _symmetry_equiv_pos_as_xyz
   1  'x, y, z'
 
loop_
  _atom_site_type_symbol
  _atom_site_label
  _atom_site_symmetry_multiplicity
  _atom_site_fract_x
  _atom_site_fract_y
  _atom_site_fract_z
  _atom_site_attached_hydrogens
  _atom_site_B_iso_or_equiv
  _atom_site_occupancy
   Se  Se1  1  0.650880  0.650880  0.650880  0  .  1
   Se  Se2  1  0.349120  0.500000  0.000000  0  .  1
   Se  Se3  1  0.500000  0.000000  0.349120  0  .  1
   Se  Se4  1  0.000000  0.349120  0.500000  0  .  1
   Se  Se5  1  0.500000  0.000000  0.849120  0  .  1
   Se  Se6  1  0.000000  0.849120  0.500000  0  .  1
   Se  Se7  1  0.150880  0.150880  0.150880  0  .  1
   Se  Se8  1  0.849120  0.500000  0.000000  0  .  1
   La  La9  1  0.750000  0.875000  0.125000  0  .  1
   La  La10  1  0.625000  0.375000  0.250000  0  .  1
   La  La11  1  0.875000  0.125000  0.750000  0  .  1
   La  La12  1  0.125000  0.750000  0.875000  0  .  1
   La  La13  1  0.375000  0.250000  0.625000  0  .  1
   La  La14  1  0.250000  0.625000  0.375000  0  .  1
 
