#\#CIF1.1
##########################################################################
#               Crystallographic Information Format file 
#               Produced by PyCifRW module
# 
#  This is a CIF file.  CIF has been adopted by the International
#  Union of Crystallography as the standard for data archiving and 
#  transmission.
#
#  For information on this file format, follow the CIF links at
#  http://www.iucr.org
##########################################################################

data_La4Co3O10
_symmetry_space_group_name_H-M          'P 1'
_cell_length_a                          3.88561758225
_cell_length_b                          3.88451869043
_cell_length_c                          14.35764599
_cell_angle_alpha                       97.7944420414
_cell_angle_beta                        97.6456246603
_cell_angle_gamma                       90.4409182271
_chemical_name_systematic               'Generated by pymatgen'
_symmetry_Int_Tables_number             1
_chemical_formula_structural            La4Co3O10
_chemical_formula_sum                   'La4 Co3 O10'
_cell_volume                            212.726692238
_cell_formula_units_Z                   1
loop_
  _symmetry_equiv_pos_site_id
  _symmetry_equiv_pos_as_xyz
   1  'x, y, z'
 
loop_
  _atom_site_type_symbol
  _atom_site_label
  _atom_site_symmetry_multiplicity
  _atom_site_fract_x
  _atom_site_fract_y
  _atom_site_fract_z
  _atom_site_attached_hydrogens
  _atom_site_B_iso_or_equiv
  _atom_site_occupancy
   O  O1  1  0.219360  0.217381  0.435992  0  .  1
   O  O2  1  0.783281  0.781353  0.564217  0  .  1
   O  O3  1  0.857640  0.359322  0.720037  0  .  1
   O  O4  1  0.640761  0.141605  0.279590  0  .  1
   O  O5  1  0.137439  0.639224  0.279981  0  .  1
   O  O6  1  0.360829  0.861809  0.720400  0  .  1
   O  O7  1  0.070403  0.066488  0.136373  0  .  1
   O  O8  1  0.500628  0.000398  0.999938  0  .  1
   O  O9  1  0.932142  0.931971  0.863514  0  .  1
   O  O10  1  0.999326  0.499539  0.999961  0  .  1
   Co  Co11  1  0.141619  0.138845  0.280208  0  .  1
   Co  Co12  1  0.860990  0.858699  0.719681  0  .  1
   Co  Co13  1  0.000774  0.999468  0.000020  0  .  1
   La  La14  1  0.434334  0.432609  0.866304  0  .  1
   La  La15  1  0.572040  0.562414  0.133813  0  .  1
   La  La16  1  0.295742  0.305492  0.602315  0  .  1
   La  La17  1  0.692691  0.703384  0.397658  0  .  1
 
