#\#CIF1.1
##########################################################################
#               Crystallographic Information Format file 
#               Produced by PyCifRW module
# 
#  This is a CIF file.  CIF has been adopted by the International
#  Union of Crystallography as the standard for data archiving and 
#  transmission.
#
#  For information on this file format, follow the CIF links at
#  http://www.iucr.org
##########################################################################

data_La5Mn5O18
_symmetry_space_group_name_H-M          'P 1'
_cell_length_a                          5.40968591396
_cell_length_b                          16.3029774098
_cell_length_c                          14.3415596577
_cell_angle_alpha                       19.2792219121
_cell_angle_beta                        56.5434504137
_cell_angle_gamma                       60.9954295204
_chemical_name_systematic               'Generated by pymatgen'
_symmetry_Int_Tables_number             1
_chemical_formula_structural            La5Mn5O18
_chemical_formula_sum                   'La5 Mn5 O18'
_cell_volume                            345.510838181
_cell_formula_units_Z                   1
loop_
  _symmetry_equiv_pos_site_id
  _symmetry_equiv_pos_as_xyz
   1  'x, y, z'
 
loop_
  _atom_site_type_symbol
  _atom_site_label
  _atom_site_symmetry_multiplicity
  _atom_site_fract_x
  _atom_site_fract_y
  _atom_site_fract_z
  _atom_site_attached_hydrogens
  _atom_site_B_iso_or_equiv
  _atom_site_occupancy
   La  La1  1  0.232498  0.573524  0.270390  0  .  1
   La  La2  1  0.741884  0.076622  0.762018  0  .  1
   La  La3  1  0.266372  0.921474  0.233797  0  .  1
   La  La4  1  0.758435  0.418722  0.743179  0  .  1
   La  La5  1  0.749656  0.750501  0.749359  0  .  1
   Mn  Mn6  1  0.994017  0.324876  0.014275  0  .  1
   Mn  Mn7  1  0.007923  0.672234  0.988242  0  .  1
   Mn  Mn8  1  0.503894  0.172916  0.489934  0  .  1
   Mn  Mn9  1  0.499282  0.498004  0.502213  0  .  1
   Mn  Mn10  1  0.492810  0.823746  0.513778  0  .  1
   O  O11  1  0.304102  0.112486  0.193239  0  .  1
   O  O12  1  0.811608  0.067623  0.243736  0  .  1
   O  O13  1  0.303950  0.465017  0.191316  0  .  1
   O  O14  1  0.756088  0.193093  0.304100  0  .  1
   O  O15  1  0.274076  0.131434  0.689224  0  .  1
   O  O16  1  0.789453  0.409919  0.242609  0  .  1
   O  O17  1  0.209495  0.275270  0.740383  0  .  1
   O  O18  1  0.307276  0.772340  0.210507  0  .  1
   O  O19  1  0.748821  0.530098  0.303059  0  .  1
   O  O20  1  0.247549  0.465019  0.702214  0  .  1
   O  O21  1  0.703328  0.232069  0.781098  0  .  1
   O  O22  1  0.780775  0.725721  0.262907  0  .  1
   O  O23  1  0.193427  0.616311  0.727669  0  .  1
   O  O24  1  0.728258  0.861921  0.317521  0  .  1
   O  O25  1  0.244969  0.803671  0.698967  0  .  1
   O  O26  1  0.716061  0.561780  0.785353  0  .  1
   O  O27  1  0.193527  0.916195  0.778224  0  .  1
   O  O28  1  0.690463  0.877415  0.810687  0  .  1
 
