#\#CIF1.1
##########################################################################
#               Crystallographic Information Format file 
#               Produced by PyCifRW module
# 
#  This is a CIF file.  CIF has been adopted by the International
#  Union of Crystallography as the standard for data archiving and 
#  transmission.
#
#  For information on this file format, follow the CIF links at
#  http://www.iucr.org
##########################################################################

data_La5Mn5O16
_symmetry_space_group_name_H-M          'P 1'
_cell_length_a                          22.0621930041
_cell_length_b                          14.5449511387
_cell_length_c                          9.49980508495
_cell_angle_alpha                       29.7548097678
_cell_angle_beta                        55.6534028356
_cell_angle_gamma                       41.4518792712
_chemical_name_systematic               'Generated by pymatgen'
_symmetry_Int_Tables_number             1
_chemical_formula_structural            La5Mn5O16
_chemical_formula_sum                   'La15 Mn15 O48'
_cell_volume                            966.193459111
_cell_formula_units_Z                   3
loop_
  _symmetry_equiv_pos_site_id
  _symmetry_equiv_pos_as_xyz
   1  'x, y, z'
 
loop_
  _atom_site_type_symbol
  _atom_site_label
  _atom_site_symmetry_multiplicity
  _atom_site_fract_x
  _atom_site_fract_y
  _atom_site_fract_z
  _atom_site_attached_hydrogens
  _atom_site_B_iso_or_equiv
  _atom_site_occupancy
   La  La1  1  0.057031  0.999281  0.231412  0  .  1
   La  La2  1  0.181081  0.001781  0.750829  0  .  1
   La  La3  1  0.316366  0.986985  0.260412  0  .  1
   La  La4  1  0.059397  0.517237  0.723304  0  .  1
   La  La5  1  0.181367  0.519960  0.237696  0  .  1
   La  La6  1  0.442527  0.996461  0.738309  0  .  1
   La  La7  1  0.319134  0.484667  0.766023  0  .  1
   La  La8  1  0.440267  0.501430  0.242308  0  .  1
   La  La9  1  0.685234  0.002018  0.758227  0  .  1
   La  La10  1  0.817851  0.998441  0.247899  0  .  1
   La  La11  1  0.562220  0.499367  0.753889  0  .  1
   La  La12  1  0.687130  0.503884  0.245694  0  .  1
   La  La13  1  0.938979  0.007347  0.762133  0  .  1
   La  La14  1  0.811678  0.493758  0.749505  0  .  1
   La  La15  1  0.936113  0.486393  0.281362  0  .  1
   Mn  Mn16  1  0.124890  0.001960  0.491455  0  .  1
   Mn  Mn17  1  0.249520  0.999766  0.000800  0  .  1
   Mn  Mn18  1  0.125373  0.500243  0.998374  0  .  1
   Mn  Mn19  1  0.374226  0.001471  0.499403  0  .  1
   Mn  Mn20  1  0.500534  0.000372  0.000600  0  .  1
   Mn  Mn21  1  0.253090  0.491302  0.508790  0  .  1
   Mn  Mn22  1  0.376856  0.495728  0.002104  0  .  1
   Mn  Mn23  1  0.627217  0.997493  0.495514  0  .  1
   Mn  Mn24  1  0.748736  0.001202  0.001599  0  .  1
   Mn  Mn25  1  0.500773  0.494714  0.507936  0  .  1
   Mn  Mn26  1  0.624428  0.504011  0.995204  0  .  1
   Mn  Mn27  1  0.874405  0.999094  0.507327  0  .  1
   Mn  Mn28  1  0.744887  0.513223  0.490521  0  .  1
   Mn  Mn29  1  0.875145  0.498541  0.001275  0  .  1
   Mn  Mn30  1  0.000044  0.501008  0.498939  0  .  1
   O  O31  1  0.171005  0.077127  0.171291  0  .  1
   O  O32  1  0.100639  0.281212  0.256105  0  .  1
   O  O33  1  0.022121  0.238741  0.724643  0  .  1
   O  O34  1  0.046582  0.573497  0.176782  0  .  1
   O  O35  1  0.238792  0.221563  0.314668  0  .  1
   O  O36  1  0.132378  0.286595  0.683367  0  .  1
   O  O37  1  0.414493  0.054813  0.195422  0  .  1
   O  O38  1  0.129121  0.697404  0.326243  0  .  1
   O  O39  1  0.348617  0.286091  0.247060  0  .  1
   O  O40  1  0.011244  0.774411  0.683532  0  .  1
   O  O41  1  0.279533  0.209635  0.753753  0  .  1
   O  O42  1  0.207339  0.427262  0.819712  0  .  1
   O  O43  1  0.295828  0.561428  0.189823  0  .  1
   O  O44  1  0.225602  0.780407  0.252342  0  .  1
   O  O45  1  0.488957  0.238209  0.304855  0  .  1
   O  O46  1  0.152292  0.715406  0.743364  0  .  1
   O  O47  1  0.384979  0.282614  0.682709  0  .  1
   O  O48  1  0.080852  0.944955  0.785084  0  .  1
   O  O49  1  0.681330  0.066132  0.178443  0  .  1
   O  O50  1  0.365446  0.720616  0.310356  0  .  1
   O  O51  1  0.605661  0.276043  0.252331  0  .  1
   O  O52  1  0.256600  0.780602  0.688933  0  .  1
   O  O53  1  0.518215  0.233433  0.725998  0  .  1
   O  O54  1  0.443105  0.481762  0.768222  0  .  1
   O  O55  1  0.549522  0.555393  0.194257  0  .  1
   O  O56  1  0.477942  0.786467  0.230401  0  .  1
   O  O57  1  0.742578  0.212991  0.325618  0  .  1
   O  O58  1  0.394917  0.722696  0.751238  0  .  1
   O  O59  1  0.634844  0.280016  0.685605  0  .  1
   O  O60  1  0.324242  0.941547  0.813849  0  .  1
   O  O61  1  0.915697  0.062348  0.208479  0  .  1
   O  O62  1  0.618113  0.704441  0.314522  0  .  1
   O  O63  1  0.852196  0.276386  0.260745  0  .  1
   O  O64  1  0.501121  0.762884  0.730209  0  .  1
   O  O65  1  0.772605  0.220719  0.748328  0  .  1
   O  O66  1  0.702488  0.437027  0.815973  0  .  1
   O  O67  1  0.794914  0.563216  0.187394  0  .  1
   O  O68  1  0.737094  0.770875  0.242769  0  .  1
   O  O69  1  0.990532  0.222495  0.313265  0  .  1
   O  O70  1  0.651775  0.702348  0.782954  0  .  1
   O  O71  1  0.870008  0.294768  0.685314  0  .  1
   O  O72  1  0.578889  0.943657  0.804631  0  .  1
   O  O73  1  0.868493  0.714422  0.317153  0  .  1
   O  O74  1  0.760071  0.777308  0.689333  0  .  1
   O  O75  1  0.953790  0.430276  0.818611  0  .  1
   O  O76  1  0.979146  0.760207  0.275422  0  .  1
   O  O77  1  0.897637  0.720517  0.746883  0  .  1
   O  O78  1  0.831660  0.927896  0.823169  0  .  1
 
