#\#CIF1.1
##########################################################################
#               Crystallographic Information Format file 
#               Produced by PyCifRW module
# 
#  This is a CIF file.  CIF has been adopted by the International
#  Union of Crystallography as the standard for data archiving and 
#  transmission.
#
#  For information on this file format, follow the CIF links at
#  http://www.iucr.org
##########################################################################

data_La7Mn8O24
_symmetry_space_group_name_H-M          'P 1'
_cell_length_a                          10.9913152264
_cell_length_b                          14.6051560751
_cell_length_c                          9.62868507205
_cell_angle_alpha                       29.1248785152
_cell_angle_beta                        55.1997660011
_cell_angle_gamma                       41.241056946
_chemical_name_systematic               'Generated by pymatgen'
_symmetry_Int_Tables_number             1
_chemical_formula_structural            La7Mn8O24
_chemical_formula_sum                   'La7 Mn8 O24'
_cell_volume                            477.733066542
_cell_formula_units_Z                   1
loop_
  _symmetry_equiv_pos_site_id
  _symmetry_equiv_pos_as_xyz
   1  'x, y, z'
 
loop_
  _atom_site_type_symbol
  _atom_site_label
  _atom_site_symmetry_multiplicity
  _atom_site_fract_x
  _atom_site_fract_y
  _atom_site_fract_z
  _atom_site_attached_hydrogens
  _atom_site_B_iso_or_equiv
  _atom_site_occupancy
   La  La1  1  0.626001  0.000510  0.248241  0  .  1
   La  La2  1  0.125733  0.498934  0.750830  0  .  1
   La  La3  1  0.375768  0.500743  0.248752  0  .  1
   La  La4  1  0.626147  0.499228  0.750603  0  .  1
   La  La5  1  0.875439  0.499878  0.250005  0  .  1
   La  La6  1  0.373711  0.001324  0.751365  0  .  1
   La  La7  1  0.877708  0.000818  0.744320  0  .  1
   Mn  Mn8  1  0.002171  0.000311  0.002440  0  .  1
   Mn  Mn9  1  0.249422  0.000046  0.495931  0  .  1
   Mn  Mn10  1  0.495802  0.000874  0.001700  0  .  1
   Mn  Mn11  1  0.001959  0.494995  0.507498  0  .  1
   Mn  Mn12  1  0.249338  0.506197  0.989929  0  .  1
   Mn  Mn13  1  0.755079  0.000502  0.495575  0  .  1
   Mn  Mn14  1  0.495422  0.507103  0.495706  0  .  1
   Mn  Mn15  1  0.754743  0.494977  0.001029  0  .  1
   O  O16  1  0.389444  0.001961  0.247266  0  .  1
   O  O17  1  0.293175  0.204979  0.299678  0  .  1
   O  O18  1  0.122307  0.500565  0.248908  0  .  1
   O  O19  1  0.260111  0.219895  0.759991  0  .  1
   O  O20  1  0.045393  0.705613  0.294653  0  .  1
   O  O21  1  0.500003  0.294921  0.205472  0  .  1
   O  O22  1  0.859721  0.003390  0.246077  0  .  1
   O  O23  1  0.999419  0.698955  0.802656  0  .  1
   O  O24  1  0.455311  0.296370  0.702365  0  .  1
   O  O25  1  0.260467  0.782539  0.196773  0  .  1
   O  O26  1  0.770561  0.220259  0.299532  0  .  1
   O  O27  1  0.390453  0.470848  0.778625  0  .  1
   O  O28  1  0.628079  0.501837  0.247544  0  .  1
   O  O29  1  0.209846  0.781064  0.738165  0  .  1
   O  O30  1  0.753449  0.205365  0.788129  0  .  1
   O  O31  1  0.553476  0.698446  0.299440  0  .  1
   O  O32  1  0.998760  0.301205  0.201395  0  .  1
   O  O33  1  0.122279  0.006559  0.742862  0  .  1
   O  O34  1  0.500405  0.705896  0.793403  0  .  1
   O  O35  1  0.950535  0.302181  0.694328  0  .  1
   O  O36  1  0.753193  0.796638  0.197227  0  .  1
   O  O37  1  0.860896  0.528907  0.720230  0  .  1
   O  O38  1  0.703263  0.795653  0.707746  0  .  1
   O  O39  1  0.628835  0.993163  0.756160  0  .  1
 
