#\#CIF1.1
##########################################################################
#               Crystallographic Information Format file 
#               Produced by PyCifRW module
# 
#  This is a CIF file.  CIF has been adopted by the International
#  Union of Crystallography as the standard for data archiving and 
#  transmission.
#
#  For information on this file format, follow the CIF links at
#  http://www.iucr.org
##########################################################################

data_La8Mn9O27
_symmetry_space_group_name_H-M          'P 1'
_cell_length_a                          16.5429065826
_cell_length_b                          9.52481093477
_cell_length_c                          16.5246164279
_cell_angle_alpha                       55.3348513153
_cell_angle_beta                        60.5789360452
_cell_angle_gamma                       30.2715371897
_chemical_name_systematic               'Generated by pymatgen'
_symmetry_Int_Tables_number             1
_chemical_formula_structural            La8Mn9O27
_chemical_formula_sum                   'La16 Mn18 O54'
_cell_volume                            1079.55759863
_cell_formula_units_Z                   2
loop_
  _symmetry_equiv_pos_site_id
  _symmetry_equiv_pos_as_xyz
   1  'x, y, z'
 
loop_
  _atom_site_type_symbol
  _atom_site_label
  _atom_site_symmetry_multiplicity
  _atom_site_fract_x
  _atom_site_fract_y
  _atom_site_fract_z
  _atom_site_attached_hydrogens
  _atom_site_B_iso_or_equiv
  _atom_site_occupancy
   La  La1  1  0.002522  0.237723  0.084084  0  .  1
   La  La2  1  0.002522  0.254713  0.415916  0  .  1
   La  La3  1  0.996250  0.255625  0.750000  0  .  1
   La  La4  1  0.326624  0.262182  0.085799  0  .  1
   La  La5  1  0.006709  0.742054  0.585799  0  .  1
   La  La6  1  0.326624  0.257946  0.414201  0  .  1
   La  La7  1  0.006709  0.737818  0.914201  0  .  1
   La  La8  1  0.337083  0.744375  0.250000  0  .  1
   La  La9  1  0.675609  0.235997  0.088511  0  .  1
   La  La10  1  0.330811  0.745287  0.584084  0  .  1
   La  La11  1  0.675609  0.237178  0.411489  0  .  1
   La  La12  1  0.330811  0.762277  0.915916  0  .  1
   La  La13  1  0.662358  0.256464  0.750000  0  .  1
   La  La14  1  0.670976  0.743537  0.250000  0  .  1
   La  La15  1  0.657725  0.762822  0.588511  0  .  1
   La  La16  1  0.657725  0.764003  0.911489  0  .  1
   Mn  Mn17  1  0.000191  0.996917  0.001934  0  .  1
   Mn  Mn18  1  0.001127  0.500070  0.167758  0  .  1
   Mn  Mn19  1  0.333142  0.003083  0.998066  0  .  1
   Mn  Mn20  1  0.000191  0.502511  0.498066  0  .  1
   Mn  Mn21  1  0.002965  0.497340  0.832802  0  .  1
   Mn  Mn22  1  0.001127  0.996548  0.332242  0  .  1
   Mn  Mn23  1  0.330368  0.502660  0.167198  0  .  1
   Mn  Mn24  1  0.666667  0.000000  0.000000  0  .  1
   Mn  Mn25  1  0.002965  0.993766  0.667198  0  .  1
   Mn  Mn26  1  0.333142  0.497489  0.501934  0  .  1
   Mn  Mn27  1  0.332206  0.499930  0.832242  0  .  1
   Mn  Mn28  1  0.330368  0.006234  0.332802  0  .  1
   Mn  Mn29  1  0.669278  0.495143  0.166941  0  .  1
   Mn  Mn30  1  0.332206  0.003452  0.667758  0  .  1
   Mn  Mn31  1  0.666667  0.500000  0.500000  0  .  1
   Mn  Mn32  1  0.664056  0.504857  0.833059  0  .  1
   Mn  Mn33  1  0.669278  0.997024  0.333059  0  .  1
   Mn  Mn34  1  0.664056  0.002976  0.666941  0  .  1
   O  O35  1  0.034988  0.197518  0.250000  0  .  1
   O  O36  1  0.149911  0.301189  0.066127  0  .  1
   O  O37  1  0.033797  0.200090  0.584298  0  .  1
   O  O38  1  0.194845  0.218631  0.233101  0  .  1
   O  O39  1  0.158539  0.271833  0.409830  0  .  1
   O  O40  1  0.158539  0.752548  0.090170  0  .  1
   O  O41  1  0.033797  0.198519  0.915702  0  .  1
   O  O42  1  0.183422  0.250922  0.566127  0  .  1
   O  O43  1  0.375135  0.187298  0.250000  0  .  1
   O  O44  1  0.138488  0.303167  0.733101  0  .  1
   O  O45  1  0.194845  0.696833  0.266899  0  .  1
   O  O46  1  0.483175  0.304795  0.064304  0  .  1
   O  O47  1  0.149911  0.749078  0.433873  0  .  1
   O  O48  1  0.299537  0.801481  0.084298  0  .  1
   O  O49  1  0.174794  0.247452  0.909830  0  .  1
   O  O50  1  0.367215  0.199617  0.572946  0  .  1
   O  O51  1  0.519593  0.245288  0.232237  0  .  1
   O  O52  1  0.174794  0.728167  0.590170  0  .  1
   O  O53  1  0.483417  0.301364  0.399066  0  .  1
   O  O54  1  0.138488  0.781369  0.766899  0  .  1
   O  O55  1  0.299537  0.799910  0.415702  0  .  1
   O  O56  1  0.483417  0.748386  0.100934  0  .  1
   O  O57  1  0.367215  0.198738  0.927054  0  .  1
   O  O58  1  0.522621  0.250201  0.560687  0  .  1
   O  O59  1  0.681395  0.227908  0.250000  0  .  1
   O  O60  1  0.183422  0.698811  0.933873  0  .  1
   O  O61  1  0.492571  0.302297  0.731704  0  .  1
   O  O62  1  0.519593  0.695931  0.267763  0  .  1
   O  O63  1  0.810712  0.318066  0.060687  0  .  1
   O  O64  1  0.298346  0.802482  0.750000  0  .  1
   O  O65  1  0.483175  0.745680  0.435696  0  .  1
   O  O66  1  0.626572  0.812911  0.082319  0  .  1
   O  O67  1  0.517933  0.250979  0.898921  0  .  1
   O  O68  1  0.706761  0.192627  0.582319  0  .  1
   O  O69  1  0.840763  0.280010  0.231704  0  .  1
   O  O70  1  0.517933  0.695220  0.601079  0  .  1
   O  O71  1  0.815400  0.304780  0.398921  0  .  1
   O  O72  1  0.492571  0.719990  0.768296  0  .  1
   O  O73  1  0.626572  0.807373  0.417681  0  .  1
   O  O74  1  0.815400  0.749021  0.101079  0  .  1
   O  O75  1  0.706761  0.187089  0.917681  0  .  1
   O  O76  1  0.850159  0.254320  0.564304  0  .  1
   O  O77  1  0.522621  0.681934  0.939313  0  .  1
   O  O78  1  0.813740  0.304069  0.732237  0  .  1
   O  O79  1  0.840763  0.697703  0.268296  0  .  1
   O  O80  1  0.651938  0.772092  0.750000  0  .  1
   O  O81  1  0.810712  0.749799  0.439313  0  .  1
   O  O82  1  0.966118  0.801262  0.072946  0  .  1
   O  O83  1  0.849917  0.251614  0.899066  0  .  1
   O  O84  1  0.849917  0.698636  0.600934  0  .  1
   O  O85  1  0.813740  0.754712  0.767763  0  .  1
   O  O86  1  0.966118  0.800383  0.427054  0  .  1
   O  O87  1  0.850159  0.695205  0.935696  0  .  1
   O  O88  1  0.958198  0.812702  0.750000  0  .  1
 
