#\#CIF1.1
##########################################################################
#               Crystallographic Information Format file 
#               Produced by PyCifRW module
# 
#  This is a CIF file.  CIF has been adopted by the International
#  Union of Crystallography as the standard for data archiving and 
#  transmission.
#
#  For information on this file format, follow the CIF links at
#  http://www.iucr.org
##########################################################################

data_La8Mn7O24
_symmetry_space_group_name_H-M          'P 1'
_cell_length_a                          7.87100356062
_cell_length_b                          7.86582033411
_cell_length_c                          9.45134018709
_cell_angle_alpha                       66.6511608058
_cell_angle_beta                        66.7130962789
_cell_angle_gamma                       90.9261714364
_chemical_name_systematic               'Generated by pymatgen'
_symmetry_Int_Tables_number             1
_chemical_formula_structural            La8Mn7O24
_chemical_formula_sum                   'La8 Mn7 O24'
_cell_volume                            482.990971873
_cell_formula_units_Z                   1
loop_
  _symmetry_equiv_pos_site_id
  _symmetry_equiv_pos_as_xyz
   1  'x, y, z'
 
loop_
  _atom_site_type_symbol
  _atom_site_label
  _atom_site_symmetry_multiplicity
  _atom_site_fract_x
  _atom_site_fract_y
  _atom_site_fract_z
  _atom_site_attached_hydrogens
  _atom_site_B_iso_or_equiv
  _atom_site_occupancy
   La  La1  1  0.384653  0.862364  0.757068  0  .  1
   La  La2  1  0.138185  0.620031  0.239752  0  .  1
   La  La3  1  0.613479  0.615735  0.234720  0  .  1
   La  La4  1  0.862872  0.859287  0.755071  0  .  1
   La  La5  1  0.861815  0.379969  0.760248  0  .  1
   La  La6  1  0.615347  0.137636  0.242932  0  .  1
   La  La7  1  0.137128  0.140713  0.244929  0  .  1
   La  La8  1  0.386521  0.384265  0.765280  0  .  1
   Mn  Mn9  1  0.000000  0.500000  0.000000  0  .  1
   Mn  Mn10  1  0.250848  0.750264  0.500031  0  .  1
   Mn  Mn11  1  0.755066  0.755722  0.488666  0  .  1
   Mn  Mn12  1  0.500000  0.000000  0.000000  0  .  1
   Mn  Mn13  1  0.749152  0.249736  0.499968  0  .  1
   Mn  Mn14  1  0.244934  0.244278  0.511334  0  .  1
   Mn  Mn15  1  0.000000  0.000000  0.000000  0  .  1
   O  O16  1  0.735066  0.947758  0.032111  0  .  1
   O  O17  1  0.343004  0.909359  0.251720  0  .  1
   O  O18  1  0.917548  0.840261  0.243799  0  .  1
   O  O19  1  0.456033  0.751509  0.024968  0  .  1
   O  O20  1  0.196556  0.979480  0.539458  0  .  1
   O  O21  1  0.518129  0.804305  0.462270  0  .  1
   O  O22  1  0.985958  0.703854  0.531791  0  .  1
   O  O23  1  0.219729  0.458557  0.031858  0  .  1
   O  O24  1  0.836919  0.405756  0.251546  0  .  1
   O  O25  1  0.052083  0.767707  0.966965  0  .  1
   O  O26  1  0.613548  0.666239  0.726529  0  .  1
   O  O27  1  0.296108  0.518093  0.466694  0  .  1
   O  O28  1  0.386452  0.333761  0.273471  0  .  1
   O  O29  1  0.703892  0.481907  0.533306  0  .  1
   O  O30  1  0.947917  0.232293  0.033035  0  .  1
   O  O31  1  0.163081  0.594244  0.748454  0  .  1
   O  O32  1  0.014042  0.296146  0.468209  0  .  1
   O  O33  1  0.780271  0.541443  0.968142  0  .  1
   O  O34  1  0.481871  0.195695  0.537730  0  .  1
   O  O35  1  0.543967  0.248491  0.975032  0  .  1
   O  O36  1  0.803444  0.020520  0.460542  0  .  1
   O  O37  1  0.082452  0.159739  0.756201  0  .  1
   O  O38  1  0.656996  0.090641  0.748280  0  .  1
   O  O39  1  0.264934  0.052242  0.967889  0  .  1
 
