#\#CIF1.1
##########################################################################
#               Crystallographic Information Format file 
#               Produced by PyCifRW module
# 
#  This is a CIF file.  CIF has been adopted by the International
#  Union of Crystallography as the standard for data archiving and 
#  transmission.
#
#  For information on this file format, follow the CIF links at
#  http://www.iucr.org
##########################################################################

data_LaCoO3
_symmetry_space_group_name_H-M          'P 1'
_cell_length_a                          5.46579744717
_cell_length_b                          5.46579744362
_cell_length_c                          5.46579745088
_cell_angle_alpha                       60.782342233
_cell_angle_beta                        60.7823422186
_cell_angle_gamma                       60.7823421789
_chemical_name_systematic               'Generated by pymatgen'
_symmetry_Int_Tables_number             1
_chemical_formula_structural            LaCoO3
_chemical_formula_sum                   'La2 Co2 O6'
_cell_volume                            117.501432355
_cell_formula_units_Z                   2
loop_
  _symmetry_equiv_pos_site_id
  _symmetry_equiv_pos_as_xyz
   1  'x, y, z'
 
loop_
  _atom_site_type_symbol
  _atom_site_label
  _atom_site_symmetry_multiplicity
  _atom_site_fract_x
  _atom_site_fract_y
  _atom_site_fract_z
  _atom_site_attached_hydrogens
  _atom_site_B_iso_or_equiv
  _atom_site_occupancy
   O  O1  1  0.249601  0.810917  0.689951  0  .  1
   O  O2  1  0.810917  0.689951  0.249601  0  .  1
   O  O3  1  0.689951  0.249601  0.810917  0  .  1
   O  O4  1  0.750399  0.189082  0.310049  0  .  1
   O  O5  1  0.310048  0.750399  0.189084  0  .  1
   O  O6  1  0.189082  0.310049  0.750399  0  .  1
   Co  Co7  1  0.500001  0.500000  0.499999  0  .  1
   Co  Co8  1  0.000000  0.000000  0.000000  0  .  1
   La  La9  1  0.749961  0.749961  0.749963  0  .  1
   La  La10  1  0.250039  0.250039  0.250038  0  .  1
 
