#\#CIF1.1
##########################################################################
#               Crystallographic Information Format file 
#               Produced by PyCifRW module
# 
#  This is a CIF file.  CIF has been adopted by the International
#  Union of Crystallography as the standard for data archiving and 
#  transmission.
#
#  For information on this file format, follow the CIF links at
#  http://www.iucr.org
##########################################################################

data_LaCrS3
_symmetry_space_group_name_H-M          'P 1'
_cell_length_a                          3.82983054
_cell_length_b                          7.87650054
_cell_length_c                          13.15737217
_cell_angle_alpha                       90.0
_cell_angle_beta                        90.0
_cell_angle_gamma                       90.0
_chemical_name_systematic               'Generated by pymatgen'
_symmetry_Int_Tables_number             1
_chemical_formula_structural            LaCrS3
_chemical_formula_sum                   'La4 Cr4 S12'
_cell_volume                            396.900845852
_cell_formula_units_Z                   4
loop_
  _symmetry_equiv_pos_site_id
  _symmetry_equiv_pos_as_xyz
   1  'x, y, z'
 
loop_
  _atom_site_type_symbol
  _atom_site_label
  _atom_site_symmetry_multiplicity
  _atom_site_fract_x
  _atom_site_fract_y
  _atom_site_fract_z
  _atom_site_attached_hydrogens
  _atom_site_B_iso_or_equiv
  _atom_site_occupancy
   La  La1  1  0.750000  0.910754  0.828576  0  .  1
   La  La2  1  0.250000  0.089246  0.171424  0  .  1
   La  La3  1  0.750000  0.410754  0.671424  0  .  1
   La  La4  1  0.250000  0.589246  0.328576  0  .  1
   Cr  Cr5  1  0.750000  0.661052  0.052188  0  .  1
   Cr  Cr6  1  0.250000  0.338948  0.947812  0  .  1
   Cr  Cr7  1  0.750000  0.161052  0.447812  0  .  1
   Cr  Cr8  1  0.250000  0.838948  0.552188  0  .  1
   S  S9  1  0.750000  0.805684  0.211783  0  .  1
   S  S10  1  0.250000  0.194316  0.788217  0  .  1
   S  S11  1  0.750000  0.305684  0.288217  0  .  1
   S  S12  1  0.250000  0.694316  0.711783  0  .  1
   S  S13  1  0.750000  0.664127  0.494147  0  .  1
   S  S14  1  0.250000  0.335873  0.505853  0  .  1
   S  S15  1  0.750000  0.164127  0.005853  0  .  1
   S  S16  1  0.250000  0.835873  0.994147  0  .  1
   S  S17  1  0.750000  0.511256  0.895218  0  .  1
   S  S18  1  0.250000  0.488744  0.104782  0  .  1
   S  S19  1  0.750000  0.011256  0.604782  0  .  1
   S  S20  1  0.250000  0.988744  0.395218  0  .  1
 
