#\#CIF1.1
##########################################################################
#               Crystallographic Information Format file 
#               Produced by PyCifRW module
# 
#  This is a CIF file.  CIF has been adopted by the International
#  Union of Crystallography as the standard for data archiving and 
#  transmission.
#
#  For information on this file format, follow the CIF links at
#  http://www.iucr.org
##########################################################################

data_LaCr2Si2C
_symmetry_space_group_name_H-M          'P 1'
_cell_length_a                          4.02089723001
_cell_length_b                          4.02084730005
_cell_length_c                          5.45645225009
_cell_angle_alpha                       89.9994132512
_cell_angle_beta                        90.0002881748
_cell_angle_gamma                       89.9999075209
_chemical_name_systematic               'Generated by pymatgen'
_symmetry_Int_Tables_number             1
_chemical_formula_structural            LaCr2Si2C
_chemical_formula_sum                   'La1 Cr2 Si2 C1'
_cell_volume                            88.2167212436
_cell_formula_units_Z                   1
loop_
  _symmetry_equiv_pos_site_id
  _symmetry_equiv_pos_as_xyz
   1  'x, y, z'
 
loop_
  _atom_site_type_symbol
  _atom_site_label
  _atom_site_symmetry_multiplicity
  _atom_site_fract_x
  _atom_site_fract_y
  _atom_site_fract_z
  _atom_site_attached_hydrogens
  _atom_site_B_iso_or_equiv
  _atom_site_occupancy
   La  La1  1  0.000003  0.000003  0.000007  0  .  1
   Cr  Cr2  1  -0.000003  0.500001  0.499999  0  .  1
   Cr  Cr3  1  0.500000  -0.000002  0.500000  0  .  1
   Si  Si4  1  0.499999  0.500001  0.762569  0  .  1
   Si  Si5  1  0.500000  0.499999  0.237428  0  .  1
   C  C6  1  -0.000000  -0.000001  0.499998  0  .  1
 
