#\#CIF1.1
##########################################################################
#               Crystallographic Information Format file 
#               Produced by PyCifRW module
# 
#  This is a CIF file.  CIF has been adopted by the International
#  Union of Crystallography as the standard for data archiving and 
#  transmission.
#
#  For information on this file format, follow the CIF links at
#  http://www.iucr.org
##########################################################################

data_LaFe12O19
_symmetry_space_group_name_H-M          'P 1'
_cell_length_a                          5.98872004557
_cell_length_b                          5.98872017618
_cell_length_c                          23.11900591
_cell_angle_alpha                       90.0
_cell_angle_beta                        90.0
_cell_angle_gamma                       119.075930918
_chemical_name_systematic               'Generated by pymatgen'
_symmetry_Int_Tables_number             1
_chemical_formula_structural            LaFe12O19
_chemical_formula_sum                   'La2 Fe24 O38'
_cell_volume                            724.664385767
_cell_formula_units_Z                   2
loop_
  _symmetry_equiv_pos_site_id
  _symmetry_equiv_pos_as_xyz
   1  'x, y, z'
 
loop_
  _atom_site_type_symbol
  _atom_site_label
  _atom_site_symmetry_multiplicity
  _atom_site_fract_x
  _atom_site_fract_y
  _atom_site_fract_z
  _atom_site_attached_hydrogens
  _atom_site_B_iso_or_equiv
  _atom_site_occupancy
   La  La1  1  0.362387  0.637613  0.750000  0  .  1
   La  La2  1  0.637613  0.362387  0.250000  0  .  1
   Fe  Fe3  1  0.335351  0.664649  0.027905  0  .  1
   Fe  Fe4  1  0.335351  0.664649  0.472095  0  .  1
   Fe  Fe5  1  0.670199  0.329801  0.810260  0  .  1
   Fe  Fe6  1  0.664649  0.335351  0.527905  0  .  1
   Fe  Fe7  1  0.333037  0.168623  0.108932  0  .  1
   Fe  Fe8  1  0.001431  0.998569  0.750000  0  .  1
   Fe  Fe9  1  0.998569  0.001431  0.250000  0  .  1
   Fe  Fe10  1  0.169998  0.830002  0.610323  0  .  1
   Fe  Fe11  1  0.830002  0.169998  0.110323  0  .  1
   Fe  Fe12  1  0.168623  0.333037  0.891068  0  .  1
   Fe  Fe13  1  0.831377  0.666963  0.391068  0  .  1
   Fe  Fe14  1  0.664649  0.335351  0.972095  0  .  1
   Fe  Fe15  1  0.333037  0.168623  0.391068  0  .  1
   Fe  Fe16  1  0.329801  0.670199  0.189740  0  .  1
   Fe  Fe17  1  0.168623  0.333037  0.608932  0  .  1
   Fe  Fe18  1  0.000000  0.000000  0.000000  0  .  1
   Fe  Fe19  1  0.169998  0.830002  0.889677  0  .  1
   Fe  Fe20  1  0.666963  0.831377  0.608932  0  .  1
   Fe  Fe21  1  0.831377  0.666963  0.108932  0  .  1
   Fe  Fe22  1  0.000000  0.000000  0.500000  0  .  1
   Fe  Fe23  1  0.670199  0.329801  0.689740  0  .  1
   Fe  Fe24  1  0.830002  0.169998  0.389677  0  .  1
   Fe  Fe25  1  0.666963  0.831377  0.891068  0  .  1
   Fe  Fe26  1  0.329801  0.670199  0.310260  0  .  1
   O  O27  1  0.362269  0.213421  0.750000  0  .  1
   O  O28  1  0.495379  0.504621  0.847156  0  .  1
   O  O29  1  0.851744  0.693837  0.945206  0  .  1
   O  O30  1  0.490614  0.975042  0.657054  0  .  1
   O  O31  1  0.846158  0.153842  0.555827  0  .  1
   O  O32  1  0.024958  0.509386  0.657054  0  .  1
   O  O33  1  0.504621  0.495379  0.152844  0  .  1
   O  O34  1  0.693837  0.851744  0.445206  0  .  1
   O  O35  1  0.815868  0.184132  0.750000  0  .  1
   O  O36  1  0.184132  0.815868  0.250000  0  .  1
   O  O37  1  0.786579  0.637731  0.750000  0  .  1
   O  O38  1  0.998725  0.001275  0.154923  0  .  1
   O  O39  1  0.213421  0.362269  0.250000  0  .  1
   O  O40  1  0.148256  0.306163  0.054794  0  .  1
   O  O41  1  0.509386  0.024958  0.342946  0  .  1
   O  O42  1  0.001275  0.998725  0.654923  0  .  1
   O  O43  1  0.504621  0.495379  0.347156  0  .  1
   O  O44  1  0.306163  0.148256  0.945206  0  .  1
   O  O45  1  0.998725  0.001275  0.345077  0  .  1
   O  O46  1  0.153842  0.846158  0.444173  0  .  1
   O  O47  1  0.664616  0.335384  0.058720  0  .  1
   O  O48  1  0.306163  0.148256  0.554794  0  .  1
   O  O49  1  0.975042  0.490614  0.157054  0  .  1
   O  O50  1  0.001275  0.998725  0.845077  0  .  1
   O  O51  1  0.664616  0.335384  0.441280  0  .  1
   O  O52  1  0.509386  0.024958  0.157054  0  .  1
   O  O53  1  0.637731  0.786579  0.250000  0  .  1
   O  O54  1  0.148256  0.306163  0.445206  0  .  1
   O  O55  1  0.335384  0.664616  0.558720  0  .  1
   O  O56  1  0.975042  0.490614  0.342946  0  .  1
   O  O57  1  0.846158  0.153842  0.944173  0  .  1
   O  O58  1  0.335384  0.664616  0.941280  0  .  1
   O  O59  1  0.851744  0.693837  0.554794  0  .  1
   O  O60  1  0.693837  0.851744  0.054794  0  .  1
   O  O61  1  0.490614  0.975042  0.842946  0  .  1
   O  O62  1  0.153842  0.846158  0.055827  0  .  1
   O  O63  1  0.495379  0.504621  0.652844  0  .  1
   O  O64  1  0.024958  0.509386  0.842946  0  .  1
 
