#\#CIF1.1
##########################################################################
#               Crystallographic Information Format file 
#               Produced by PyCifRW module
# 
#  This is a CIF file.  CIF has been adopted by the International
#  Union of Crystallography as the standard for data archiving and 
#  transmission.
#
#  For information on this file format, follow the CIF links at
#  http://www.iucr.org
##########################################################################

data_LaFeO3
_symmetry_space_group_name_H-M          'P 1'
_cell_length_a                          5.66233608788
_cell_length_b                          6.45288717122
_cell_length_c                          9.12439893128
_cell_angle_alpha                       90.0244303316
_cell_angle_beta                        89.9954455144
_cell_angle_gamma                       89.9991423338
_chemical_name_systematic               'Generated by pymatgen'
_symmetry_Int_Tables_number             1
_chemical_formula_structural            LaFeO3
_chemical_formula_sum                   'La4 Fe4 O12'
_cell_volume                            333.391051597
_cell_formula_units_Z                   4
loop_
  _symmetry_equiv_pos_site_id
  _symmetry_equiv_pos_as_xyz
   1  'x, y, z'
 
loop_
  _atom_site_type_symbol
  _atom_site_label
  _atom_site_symmetry_multiplicity
  _atom_site_fract_x
  _atom_site_fract_y
  _atom_site_fract_z
  _atom_site_attached_hydrogens
  _atom_site_B_iso_or_equiv
  _atom_site_occupancy
   La  La1  1  0.500649  0.001668  0.000600  0  .  1
   La  La2  1  0.000753  0.498510  0.999421  0  .  1
   La  La3  1  0.000707  0.498363  0.500668  0  .  1
   La  La4  1  0.500679  0.001568  0.499418  0  .  1
   Fe  Fe5  1  0.496408  0.433769  0.250120  0  .  1
   Fe  Fe6  1  0.506748  0.578785  0.749867  0  .  1
   Fe  Fe7  1  0.006651  0.921164  0.250044  0  .  1
   Fe  Fe8  1  0.996293  0.066198  0.750111  0  .  1
   O  O9  1  0.146465  0.168661  0.585436  0  .  1
   O  O10  1  0.330336  0.956914  0.250003  0  .  1
   O  O11  1  0.850424  0.826821  0.085219  0  .  1
   O  O12  1  0.646136  0.331642  0.085241  0  .  1
   O  O13  1  0.646656  0.331020  0.414701  0  .  1
   O  O14  1  0.850494  0.826636  0.414895  0  .  1
   O  O15  1  0.350325  0.673432  0.914519  0  .  1
   O  O16  1  0.671390  0.037581  0.749995  0  .  1
   O  O17  1  0.830441  0.543209  0.750002  0  .  1
   O  O18  1  0.171479  0.462487  0.250065  0  .  1
   O  O19  1  0.350835  0.672977  0.584864  0  .  1
   O  O20  1  0.146132  0.168595  0.914812  0  .  1
 
