#\#CIF1.1
##########################################################################
#               Crystallographic Information Format file 
#               Produced by PyCifRW module
# 
#  This is a CIF file.  CIF has been adopted by the International
#  Union of Crystallography as the standard for data archiving and 
#  transmission.
#
#  For information on this file format, follow the CIF links at
#  http://www.iucr.org
##########################################################################

data_LaMnO3
_symmetry_space_group_name_H-M          'P 1'
_cell_length_a                          6.03684286368
_cell_length_b                          6.71909880105
_cell_length_c                          10.29364164
_cell_angle_alpha                       90.0
_cell_angle_beta                        90.0
_cell_angle_gamma                       52.6466716226
_chemical_name_systematic               'Generated by pymatgen'
_symmetry_Int_Tables_number             1
_chemical_formula_structural            LaMnO3
_chemical_formula_sum                   'La4 Mn4 O12'
_cell_volume                            331.900125988
_cell_formula_units_Z                   4
loop_
  _symmetry_equiv_pos_site_id
  _symmetry_equiv_pos_as_xyz
   1  'x, y, z'
 
loop_
  _atom_site_type_symbol
  _atom_site_label
  _atom_site_symmetry_multiplicity
  _atom_site_fract_x
  _atom_site_fract_y
  _atom_site_fract_z
  _atom_site_attached_hydrogens
  _atom_site_B_iso_or_equiv
  _atom_site_occupancy
   La  La1  1  0.473942  0.027167  0.332058  0  .  1
   La  La2  1  0.026058  0.972833  0.832058  0  .  1
   La  La3  1  0.973942  0.027167  0.167942  0  .  1
   La  La4  1  0.526058  0.972833  0.667942  0  .  1
   Mn  Mn5  1  0.000000  0.000000  0.500000  0  .  1
   Mn  Mn6  1  0.000000  0.500000  0.000000  0  .  1
   Mn  Mn7  1  0.500000  0.000000  0.000000  0  .  1
   Mn  Mn8  1  0.500000  0.500000  0.500000  0  .  1
   O  O9  1  0.709948  0.225427  0.626656  0  .  1
   O  O10  1  0.837401  0.740965  0.858382  0  .  1
   O  O11  1  0.684815  0.168972  0.994298  0  .  1
   O  O12  1  0.290052  0.774574  0.373344  0  .  1
   O  O13  1  0.162599  0.259035  0.141618  0  .  1
   O  O14  1  0.815185  0.831028  0.494298  0  .  1
   O  O15  1  0.209948  0.225427  0.873344  0  .  1
   O  O16  1  0.337401  0.740965  0.641618  0  .  1
   O  O17  1  0.315185  0.831028  0.005702  0  .  1
   O  O18  1  0.184815  0.168972  0.505702  0  .  1
   O  O19  1  0.790052  0.774574  0.126656  0  .  1
   O  O20  1  0.662599  0.259035  0.358382  0  .  1
 
