#\#CIF1.1
##########################################################################
#               Crystallographic Information Format file 
#               Produced by PyCifRW module
# 
#  This is a CIF file.  CIF has been adopted by the International
#  Union of Crystallography as the standard for data archiving and 
#  transmission.
#
#  For information on this file format, follow the CIF links at
#  http://www.iucr.org
##########################################################################

data_LaMn7O12
_symmetry_space_group_name_H-M          'P 1'
_cell_length_a                          6.57102285765
_cell_length_b                          6.57102232684
_cell_length_c                          6.57774819849
_cell_angle_alpha                       109.488199103
_cell_angle_beta                        109.485133515
_cell_angle_gamma                       109.398849386
_chemical_name_systematic               'Generated by pymatgen'
_symmetry_Int_Tables_number             1
_chemical_formula_structural            LaMn7O12
_chemical_formula_sum                   'La1 Mn7 O12'
_cell_volume                            218.747522526
_cell_formula_units_Z                   1
loop_
  _symmetry_equiv_pos_site_id
  _symmetry_equiv_pos_as_xyz
   1  'x, y, z'
 
loop_
  _atom_site_type_symbol
  _atom_site_label
  _atom_site_symmetry_multiplicity
  _atom_site_fract_x
  _atom_site_fract_y
  _atom_site_fract_z
  _atom_site_attached_hydrogens
  _atom_site_B_iso_or_equiv
  _atom_site_occupancy
   La  La1  1  0.000000  0.000000  0.000000  0  .  1
   Mn  Mn2  1  0.000000  0.000000  0.500000  0  .  1
   Mn  Mn3  1  0.000000  0.500000  0.000000  0  .  1
   Mn  Mn4  1  0.500000  0.000000  0.000000  0  .  1
   Mn  Mn5  1  0.500000  0.000000  0.500000  0  .  1
   Mn  Mn6  1  0.500000  0.500000  0.500000  0  .  1
   Mn  Mn7  1  0.000000  0.500000  0.500000  0  .  1
   Mn  Mn8  1  0.500000  0.500000  0.000000  0  .  1
   O  O9  1  0.824552  0.516509  0.691888  0  .  1
   O  O10  1  0.132674  0.310298  0.826803  0  .  1
   O  O11  1  0.692666  0.174307  0.866973  0  .  1
   O  O12  1  0.175379  0.867336  0.691888  0  .  1
   O  O13  1  0.483494  0.305871  0.173197  0  .  1
   O  O14  1  0.307334  0.825693  0.133027  0  .  1
   O  O15  1  0.691244  0.823487  0.514730  0  .  1
   O  O16  1  0.516506  0.694129  0.826803  0  .  1
   O  O17  1  0.867326  0.689702  0.173197  0  .  1
   O  O18  1  0.175448  0.483491  0.308112  0  .  1
   O  O19  1  0.308756  0.176513  0.485270  0  .  1
   O  O20  1  0.824621  0.132664  0.308112  0  .  1
 
