#\#CIF1.1
##########################################################################
#               Crystallographic Information Format file 
#               Produced by PyCifRW module
# 
#  This is a CIF file.  CIF has been adopted by the International
#  Union of Crystallography as the standard for data archiving and 
#  transmission.
#
#  For information on this file format, follow the CIF links at
#  http://www.iucr.org
##########################################################################

data_LaS
_symmetry_space_group_name_H-M          'P 1'
_cell_length_a                          4.07581330697
_cell_length_b                          4.07581306951
_cell_length_c                          23.30227702
_cell_angle_alpha                       90.0
_cell_angle_beta                        90.0
_cell_angle_gamma                       90.0019362905
_chemical_name_systematic               'Generated by pymatgen'
_symmetry_Int_Tables_number             1
_chemical_formula_structural            LaS
_chemical_formula_sum                   'La4 S4'
_cell_volume                            387.103324501
_cell_formula_units_Z                   4
loop_
  _symmetry_equiv_pos_site_id
  _symmetry_equiv_pos_as_xyz
   1  'x, y, z'
 
loop_
  _atom_site_type_symbol
  _atom_site_label
  _atom_site_symmetry_multiplicity
  _atom_site_fract_x
  _atom_site_fract_y
  _atom_site_fract_z
  _atom_site_attached_hydrogens
  _atom_site_B_iso_or_equiv
  _atom_site_occupancy
   La  La1  1  0.414003  0.585997  0.194423  0  .  1
   La  La2  1  0.085997  0.914003  0.694423  0  .  1
   La  La3  1  0.914003  0.085997  0.305577  0  .  1
   La  La4  1  0.585997  0.414003  0.805577  0  .  1
   S  S5  1  0.913994  0.086006  0.180169  0  .  1
   S  S6  1  0.086006  0.913994  0.819831  0  .  1
   S  S7  1  0.413994  0.586006  0.319831  0  .  1
   S  S8  1  0.586006  0.413994  0.680169  0  .  1
 
