#\#CIF1.1
##########################################################################
#               Crystallographic Information Format file 
#               Produced by PyCifRW module
# 
#  This is a CIF file.  CIF has been adopted by the International
#  Union of Crystallography as the standard for data archiving and 
#  transmission.
#
#  For information on this file format, follow the CIF links at
#  http://www.iucr.org
##########################################################################

data_LaSe
_symmetry_space_group_name_H-M          'P 1'
_cell_length_a                          4.21624143027
_cell_length_b                          4.21545922274
_cell_length_c                          35.5845010308
_cell_angle_alpha                       89.5759745667
_cell_angle_beta                        89.6888208002
_cell_angle_gamma                       90.0986527413
_chemical_name_systematic               'Generated by pymatgen'
_symmetry_Int_Tables_number             1
_chemical_formula_structural            LaSe
_chemical_formula_sum                   'La4 Se4'
_cell_volume                            632.429721898
_cell_formula_units_Z                   4
loop_
  _symmetry_equiv_pos_site_id
  _symmetry_equiv_pos_as_xyz
   1  'x, y, z'
 
loop_
  _atom_site_type_symbol
  _atom_site_label
  _atom_site_symmetry_multiplicity
  _atom_site_fract_x
  _atom_site_fract_y
  _atom_site_fract_z
  _atom_site_attached_hydrogens
  _atom_site_B_iso_or_equiv
  _atom_site_occupancy
   La  La1  1  0.020203  0.751948  0.215835  0  .  1
   La  La2  1  0.518094  0.245624  0.288366  0  .  1
   La  La3  1  0.922936  0.165559  0.717637  0  .  1
   La  La4  1  0.418917  0.662497  0.790079  0  .  1
   Se  Se5  1  0.520736  0.253006  0.202354  0  .  1
   Se  Se6  1  0.017489  0.744924  0.301798  0  .  1
   Se  Se7  1  0.423648  0.666266  0.703657  0  .  1
   Se  Se8  1  0.918678  0.161677  0.804074  0  .  1
 
