#\#CIF1.1
##########################################################################
#               Crystallographic Information Format file 
#               Produced by PyCifRW module
# 
#  This is a CIF file.  CIF has been adopted by the International
#  Union of Crystallography as the standard for data archiving and 
#  transmission.
#
#  For information on this file format, follow the CIF links at
#  http://www.iucr.org
##########################################################################

data_LaSe2
_symmetry_space_group_name_H-M          'P 1'
_cell_length_a                          4.54760250762
_cell_length_b                          9.5120492226
_cell_length_c                          8.41530483
_cell_angle_alpha                       90.0
_cell_angle_beta                        90.0
_cell_angle_gamma                       108.120699115
_chemical_name_systematic               'Generated by pymatgen'
_symmetry_Int_Tables_number             1
_chemical_formula_structural            LaSe2
_chemical_formula_sum                   'La4 Se8'
_cell_volume                            345.966807862
_cell_formula_units_Z                   4
loop_
  _symmetry_equiv_pos_site_id
  _symmetry_equiv_pos_as_xyz
   1  'x, y, z'
 
loop_
  _atom_site_type_symbol
  _atom_site_label
  _atom_site_symmetry_multiplicity
  _atom_site_fract_x
  _atom_site_fract_y
  _atom_site_fract_z
  _atom_site_attached_hydrogens
  _atom_site_B_iso_or_equiv
  _atom_site_occupancy
   Se  Se1  1  0.929211  0.116634  0.512304  0  .  1
   Se  Se2  1  0.070789  0.383366  0.012304  0  .  1
   Se  Se3  1  0.070789  0.883366  0.487696  0  .  1
   Se  Se4  1  0.929211  0.616634  0.987696  0  .  1
   Se  Se5  1  0.713505  0.389037  0.625769  0  .  1
   Se  Se6  1  0.286495  0.110963  0.125769  0  .  1
   Se  Se7  1  0.286495  0.610963  0.374231  0  .  1
   Se  Se8  1  0.713505  0.889037  0.874231  0  .  1
   La  La9  1  0.380833  0.094045  0.771705  0  .  1
   La  La10  1  0.619167  0.405955  0.271705  0  .  1
   La  La11  1  0.619167  0.905955  0.228295  0  .  1
   La  La12  1  0.380833  0.594045  0.728295  0  .  1
 
