#\#CIF1.1
##########################################################################
#               Crystallographic Information Format file 
#               Produced by PyCifRW module
# 
#  This is a CIF file.  CIF has been adopted by the International
#  Union of Crystallography as the standard for data archiving and 
#  transmission.
#
#  For information on this file format, follow the CIF links at
#  http://www.iucr.org
##########################################################################

data_Li(CoO2)8
_symmetry_space_group_name_H-M          'P 1'
_cell_length_a                          10.3882063179
_cell_length_b                          15.0243818405
_cell_length_c                          19.740539969
_cell_angle_alpha                       15.1301018058
_cell_angle_beta                        21.0766980551
_cell_angle_gamma                       21.1122713999
_chemical_name_systematic               'Generated by pymatgen'
_symmetry_Int_Tables_number             1
_chemical_formula_structural            Li(CoO2)8
_chemical_formula_sum                   'Li1 Co8 O16'
_cell_volume                            271.737595334
_cell_formula_units_Z                   1
loop_
  _symmetry_equiv_pos_site_id
  _symmetry_equiv_pos_as_xyz
   1  'x, y, z'
 
loop_
  _atom_site_type_symbol
  _atom_site_label
  _atom_site_symmetry_multiplicity
  _atom_site_fract_x
  _atom_site_fract_y
  _atom_site_fract_z
  _atom_site_attached_hydrogens
  _atom_site_B_iso_or_equiv
  _atom_site_occupancy
   Li  Li1  1  0.125000  0.250000  0.500000  0  .  1
   Co  Co2  1  0.063951  0.124082  0.249737  0  .  1
   Co  Co3  1  0.565630  0.121156  0.249291  0  .  1
   Co  Co4  1  0.312561  0.626267  0.250567  0  .  1
   Co  Co5  1  0.186049  0.375918  0.750263  0  .  1
   Co  Co6  1  0.811449  0.624893  0.247787  0  .  1
   Co  Co7  1  0.684370  0.378844  0.750709  0  .  1
   Co  Co8  1  0.438551  0.875107  0.752213  0  .  1
   Co  Co9  1  0.937439  0.873733  0.749433  0  .  1
   O  O10  1  0.027029  0.056152  0.118045  0  .  1
   O  O11  1  0.523801  0.053439  0.120344  0  .  1
   O  O12  1  0.097725  0.189624  0.383346  0  .  1
   O  O13  1  0.272735  0.550255  0.124511  0  .  1
   O  O14  1  0.587020  0.193579  0.388571  0  .  1
   O  O15  1  0.152275  0.310376  0.616654  0  .  1
   O  O16  1  0.787176  0.563542  0.107766  0  .  1
   O  O17  1  0.342690  0.692406  0.384999  0  .  1
   O  O18  1  0.662980  0.306421  0.611429  0  .  1
   O  O19  1  0.222971  0.443848  0.881955  0  .  1
   O  O20  1  0.850121  0.680085  0.391794  0  .  1
   O  O21  1  0.399879  0.819915  0.608206  0  .  1
   O  O22  1  0.726199  0.446561  0.879656  0  .  1
   O  O23  1  0.907310  0.807594  0.615001  0  .  1
   O  O24  1  0.462824  0.936458  0.892234  0  .  1
   O  O25  1  0.977265  0.949745  0.875489  0  .  1
 
