#\#CIF1.1
##########################################################################
#               Crystallographic Information Format file 
#               Produced by PyCifRW module
# 
#  This is a CIF file.  CIF has been adopted by the International
#  Union of Crystallography as the standard for data archiving and 
#  transmission.
#
#  For information on this file format, follow the CIF links at
#  http://www.iucr.org
##########################################################################

data_Li(FeO2)2
_symmetry_space_group_name_H-M          'P 1'
_cell_length_a                          5.97529578725
_cell_length_b                          5.97529592106
_cell_length_c                          5.97529533
_cell_angle_alpha                       59.9999971942
_cell_angle_beta                        59.999996416
_cell_angle_gamma                       60.0000018938
_chemical_name_systematic               'Generated by pymatgen'
_symmetry_Int_Tables_number             1
_chemical_formula_structural            Li(FeO2)2
_chemical_formula_sum                   'Li2 Fe4 O8'
_cell_volume                            150.856208844
_cell_formula_units_Z                   2
loop_
  _symmetry_equiv_pos_site_id
  _symmetry_equiv_pos_as_xyz
   1  'x, y, z'
 
loop_
  _atom_site_type_symbol
  _atom_site_label
  _atom_site_symmetry_multiplicity
  _atom_site_fract_x
  _atom_site_fract_y
  _atom_site_fract_z
  _atom_site_attached_hydrogens
  _atom_site_B_iso_or_equiv
  _atom_site_occupancy
   Li  Li1  1  0.125000  0.125000  0.125001  0  .  1
   Li  Li2  1  0.874999  0.874999  0.875002  0  .  1
   O  O3  1  0.261819  0.261818  0.714544  0  .  1
   O  O4  1  0.738182  0.738181  0.738181  0  .  1
   O  O5  1  0.738182  0.738181  0.285457  0  .  1
   O  O6  1  0.261819  0.714544  0.261818  0  .  1
   O  O7  1  0.261819  0.261818  0.261819  0  .  1
   O  O8  1  0.285457  0.738181  0.738183  0  .  1
   O  O9  1  0.738182  0.285455  0.738182  0  .  1
   O  O10  1  0.714545  0.261818  0.261819  0  .  1
   Fe  Fe11  1  0.499998  0.500001  0.500000  0  .  1
   Fe  Fe12  1  0.500000  0.000000  0.500000  0  .  1
   Fe  Fe13  1  0.000002  0.500001  0.500000  0  .  1
   Fe  Fe14  1  0.499998  0.500001  0.000001  0  .  1
 
