#\#CIF1.1
##########################################################################
#               Crystallographic Information Format file 
#               Produced by PyCifRW module
# 
#  This is a CIF file.  CIF has been adopted by the International
#  Union of Crystallography as the standard for data archiving and 
#  transmission.
#
#  For information on this file format, follow the CIF links at
#  http://www.iucr.org
##########################################################################

data_Li(TiS2)3
_symmetry_space_group_name_H-M          'P 1'
_cell_length_a                          3.42112848
_cell_length_b                          3.42112847715
_cell_length_c                          21.58186908
_cell_angle_alpha                       90.0
_cell_angle_beta                        90.0
_cell_angle_gamma                       120.000000028
_chemical_name_systematic               'Generated by pymatgen'
_symmetry_Int_Tables_number             1
_chemical_formula_structural            Li(TiS2)3
_chemical_formula_sum                   'Li1 Ti3 S6'
_cell_volume                            218.755234379
_cell_formula_units_Z                   1
loop_
  _symmetry_equiv_pos_site_id
  _symmetry_equiv_pos_as_xyz
   1  'x, y, z'
 
loop_
  _atom_site_type_symbol
  _atom_site_label
  _atom_site_symmetry_multiplicity
  _atom_site_fract_x
  _atom_site_fract_y
  _atom_site_fract_z
  _atom_site_attached_hydrogens
  _atom_site_B_iso_or_equiv
  _atom_site_occupancy
   Li  Li1  1  0.000000  0.000000  0.500000  0  .  1
   S  S2  1  0.666667  0.333333  0.289778  0  .  1
   S  S3  1  0.333333  0.666667  0.710221  0  .  1
   S  S4  1  0.333333  0.666667  0.065764  0  .  1
   S  S5  1  0.666667  0.333333  0.934236  0  .  1
   S  S6  1  0.333333  0.666667  0.424184  0  .  1
   S  S7  1  0.666667  0.333333  0.575816  0  .  1
   Ti  Ti8  1  0.000000  0.000000  0.645922  0  .  1
   Ti  Ti9  1  0.000000  0.000000  0.354078  0  .  1
   Ti  Ti10  1  0.000000  0.000000  0.000000  0  .  1
 
