#\#CIF1.1
##########################################################################
#               Crystallographic Information Format file 
#               Produced by PyCifRW module
# 
#  This is a CIF file.  CIF has been adopted by the International
#  Union of Crystallography as the standard for data archiving and 
#  transmission.
#
#  For information on this file format, follow the CIF links at
#  http://www.iucr.org
##########################################################################

data_Li10Cu4S9
_symmetry_space_group_name_H-M          'P 1'
_cell_length_a                          11.59163042
_cell_length_b                          11.59163042
_cell_length_c                          5.65913865
_cell_angle_alpha                       90.0
_cell_angle_beta                        90.0
_cell_angle_gamma                       90.0
_chemical_name_systematic               'Generated by pymatgen'
_symmetry_Int_Tables_number             1
_chemical_formula_structural            Li10Cu4S9
_chemical_formula_sum                   'Li20 Cu8 S18'
_cell_volume                            760.395234129
_cell_formula_units_Z                   2
loop_
  _symmetry_equiv_pos_site_id
  _symmetry_equiv_pos_as_xyz
   1  'x, y, z'
 
loop_
  _atom_site_type_symbol
  _atom_site_label
  _atom_site_symmetry_multiplicity
  _atom_site_fract_x
  _atom_site_fract_y
  _atom_site_fract_z
  _atom_site_attached_hydrogens
  _atom_site_B_iso_or_equiv
  _atom_site_occupancy
   Li  Li1  1  0.065021  0.398612  0.465390  0  .  1
   Li  Li2  1  0.065021  0.101388  0.465390  0  .  1
   Li  Li3  1  0.101388  0.065021  0.965390  0  .  1
   Li  Li4  1  0.101388  0.434979  0.965390  0  .  1
   Li  Li5  1  0.250000  0.250000  0.423536  0  .  1
   Li  Li6  1  0.250000  0.250000  0.923536  0  .  1
   Li  Li7  1  0.398612  0.065021  0.965390  0  .  1
   Li  Li8  1  0.398612  0.434979  0.965390  0  .  1
   Li  Li9  1  0.434979  0.101388  0.465390  0  .  1
   Li  Li10  1  0.434979  0.398612  0.465390  0  .  1
   Li  Li11  1  0.565021  0.601388  0.534610  0  .  1
   Li  Li12  1  0.565021  0.898612  0.534610  0  .  1
   Li  Li13  1  0.601388  0.565021  0.034610  0  .  1
   Li  Li14  1  0.601388  0.934979  0.034610  0  .  1
   Li  Li15  1  0.750000  0.750000  0.076464  0  .  1
   Li  Li16  1  0.750000  0.750000  0.576464  0  .  1
   Li  Li17  1  0.898612  0.934979  0.034610  0  .  1
   Li  Li18  1  0.898612  0.565021  0.034610  0  .  1
   Li  Li19  1  0.934979  0.601388  0.534610  0  .  1
   Li  Li20  1  0.934979  0.898612  0.534610  0  .  1
   Cu  Cu21  1  0.095553  0.750000  0.006415  0  .  1
   Cu  Cu22  1  0.250000  0.904447  0.493585  0  .  1
   Cu  Cu23  1  0.250000  0.595553  0.493585  0  .  1
   Cu  Cu24  1  0.404447  0.750000  0.006415  0  .  1
   Cu  Cu25  1  0.595553  0.250000  0.993585  0  .  1
   Cu  Cu26  1  0.750000  0.095553  0.506415  0  .  1
   Cu  Cu27  1  0.750000  0.404447  0.506415  0  .  1
   Cu  Cu28  1  0.904447  0.250000  0.993585  0  .  1
   S  S29  1  0.089705  0.589705  0.250000  0  .  1
   S  S30  1  0.089705  0.910295  0.250000  0  .  1
   S  S31  1  0.083240  0.250000  0.174224  0  .  1
   S  S32  1  0.250000  0.750000  0.750000  0  .  1
   S  S33  1  0.250000  0.083240  0.674224  0  .  1
   S  S34  1  0.250000  0.416760  0.674224  0  .  1
   S  S35  1  0.416760  0.250000  0.174224  0  .  1
   S  S36  1  0.410295  0.589705  0.250000  0  .  1
   S  S37  1  0.410295  0.910295  0.250000  0  .  1
   S  S38  1  0.589705  0.089705  0.750000  0  .  1
   S  S39  1  0.589705  0.410295  0.750000  0  .  1
   S  S40  1  0.583240  0.750000  0.825776  0  .  1
   S  S41  1  0.750000  0.916760  0.325776  0  .  1
   S  S42  1  0.750000  0.250000  0.250000  0  .  1
   S  S43  1  0.750000  0.583240  0.325776  0  .  1
   S  S44  1  0.916760  0.750000  0.825776  0  .  1
   S  S45  1  0.910295  0.089705  0.750000  0  .  1
   S  S46  1  0.910295  0.410295  0.750000  0  .  1
 
