#\#CIF1.1
##########################################################################
#               Crystallographic Information Format file 
#               Produced by PyCifRW module
# 
#  This is a CIF file.  CIF has been adopted by the International
#  Union of Crystallography as the standard for data archiving and 
#  transmission.
#
#  For information on this file format, follow the CIF links at
#  http://www.iucr.org
##########################################################################

data_Li10Ti4O13
_symmetry_space_group_name_H-M          'P 1'
_cell_length_a                          10.8470622129
_cell_length_b                          8.95331294669
_cell_length_c                          7.78479537851
_cell_angle_alpha                       103.876963961
_cell_angle_beta                        96.2268183965
_cell_angle_gamma                       115.118994105
_chemical_name_systematic               'Generated by pymatgen'
_symmetry_Int_Tables_number             1
_chemical_formula_structural            Li10Ti4O13
_chemical_formula_sum                   'Li20 Ti8 O26'
_cell_volume                            645.262284392
_cell_formula_units_Z                   2
loop_
  _symmetry_equiv_pos_site_id
  _symmetry_equiv_pos_as_xyz
   1  'x, y, z'
 
loop_
  _atom_site_type_symbol
  _atom_site_label
  _atom_site_symmetry_multiplicity
  _atom_site_fract_x
  _atom_site_fract_y
  _atom_site_fract_z
  _atom_site_attached_hydrogens
  _atom_site_B_iso_or_equiv
  _atom_site_occupancy
   Li  Li1  1  0.097497  0.712138  0.483084  0  .  1
   Li  Li2  1  0.113782  0.652146  0.859478  0  .  1
   Li  Li3  1  0.034267  0.238859  0.808091  0  .  1
   Li  Li4  1  0.092829  0.154034  0.205667  0  .  1
   Li  Li5  1  0.130269  0.089359  0.512318  0  .  1
   Li  Li6  1  0.422593  0.726937  0.010170  0  .  1
   Li  Li7  1  0.373156  0.878614  0.600600  0  .  1
   Li  Li8  1  0.386420  0.413576  0.892481  0  .  1
   Li  Li9  1  0.521874  0.735070  0.361871  0  .  1
   Li  Li10  1  0.396407  0.323513  0.242091  0  .  1
   Li  Li11  1  0.603593  0.676487  0.757909  0  .  1
   Li  Li12  1  0.478126  0.264930  0.638129  0  .  1
   Li  Li13  1  0.613580  0.586424  0.107519  0  .  1
   Li  Li14  1  0.626844  0.121386  0.399400  0  .  1
   Li  Li15  1  0.577407  0.273063  0.989830  0  .  1
   Li  Li16  1  0.869731  0.910641  0.487682  0  .  1
   Li  Li17  1  0.907171  0.845966  0.794333  0  .  1
   Li  Li18  1  0.965733  0.761141  0.191909  0  .  1
   Li  Li19  1  0.886218  0.347854  0.140522  0  .  1
   Li  Li20  1  0.902503  0.287862  0.516916  0  .  1
   Ti  Ti21  1  0.277275  0.948294  0.248484  0  .  1
   Ti  Ti22  1  0.219152  0.530531  0.183648  0  .  1
   Ti  Ti23  1  0.242295  0.489258  0.593805  0  .  1
   Ti  Ti24  1  0.230576  0.028982  0.848300  0  .  1
   Ti  Ti25  1  0.769424  0.971018  0.151700  0  .  1
   Ti  Ti26  1  0.757705  0.510742  0.406195  0  .  1
   Ti  Ti27  1  0.780848  0.469469  0.816352  0  .  1
   Ti  Ti28  1  0.722725  0.051706  0.751516  0  .  1
   O  O29  1  0.148981  0.896141  0.374443  0  .  1
   O  O30  1  0.222437  0.822809  0.743325  0  .  1
   O  O31  1  0.091416  0.431916  0.692035  0  .  1
   O  O32  1  0.058642  0.331375  0.082284  0  .  1
   O  O33  1  0.257130  0.728268  0.101836  0  .  1
   O  O34  1  0.244735  0.625793  0.433136  0  .  1
   O  O35  1  0.078813  0.039299  0.738478  0  .  1
   O  O36  1  0.229802  0.293888  0.442957  0  .  1
   O  O37  1  0.403013  0.585625  0.771941  0  .  1
   O  O38  1  0.368453  0.498689  0.145411  0  .  1
   O  O39  1  0.241949  0.074721  0.103875  0  .  1
   O  O40  1  0.392690  0.194682  0.824891  0  .  1
   O  O41  1  0.558632  0.911000  0.589871  0  .  1
   O  O42  1  0.441368  0.089000  0.410129  0  .  1
   O  O43  1  0.607310  0.805318  0.175109  0  .  1
   O  O44  1  0.758051  0.925279  0.896125  0  .  1
   O  O45  1  0.631547  0.501311  0.854589  0  .  1
   O  O46  1  0.596987  0.414375  0.228059  0  .  1
   O  O47  1  0.770198  0.706112  0.557043  0  .  1
   O  O48  1  0.921187  0.960701  0.261522  0  .  1
   O  O49  1  0.755265  0.374207  0.566864  0  .  1
   O  O50  1  0.742870  0.271732  0.898164  0  .  1
   O  O51  1  0.941358  0.668625  0.917716  0  .  1
   O  O52  1  0.908584  0.568084  0.307965  0  .  1
   O  O53  1  0.777563  0.177191  0.256675  0  .  1
   O  O54  1  0.851019  0.103859  0.625557  0  .  1
 
