#\#CIF1.1
##########################################################################
#               Crystallographic Information Format file 
#               Produced by PyCifRW module
# 
#  This is a CIF file.  CIF has been adopted by the International
#  Union of Crystallography as the standard for data archiving and 
#  transmission.
#
#  For information on this file format, follow the CIF links at
#  http://www.iucr.org
##########################################################################

data_Li10Mn23O48
_symmetry_space_group_name_H-M          'P 1'
_cell_length_a                          5.91441565934
_cell_length_b                          5.93437813063
_cell_length_c                          35.2631870435
_cell_angle_alpha                       59.6776392536
_cell_angle_beta                        60.6652030458
_cell_angle_gamma                       59.8882892619
_chemical_name_systematic               'Generated by pymatgen'
_symmetry_Int_Tables_number             1
_chemical_formula_structural            Li10Mn23O48
_chemical_formula_sum                   'Li10 Mn23 O48'
_cell_volume                            876.555517611
_cell_formula_units_Z                   1
loop_
  _symmetry_equiv_pos_site_id
  _symmetry_equiv_pos_as_xyz
   1  'x, y, z'
 
loop_
  _atom_site_type_symbol
  _atom_site_label
  _atom_site_symmetry_multiplicity
  _atom_site_fract_x
  _atom_site_fract_y
  _atom_site_fract_z
  _atom_site_attached_hydrogens
  _atom_site_B_iso_or_equiv
  _atom_site_occupancy
   Li  Li1  1  0.136614  0.116799  0.021631  0  .  1
   Li  Li2  1  0.152795  0.120981  0.184207  0  .  1
   Li  Li3  1  0.130121  0.128509  0.352144  0  .  1
   Li  Li4  1  0.132280  0.114649  0.523070  0  .  1
   Li  Li5  1  0.134151  0.131662  0.683754  0  .  1
   Li  Li6  1  0.870336  0.864943  0.483297  0  .  1
   Li  Li7  1  0.110629  0.125634  0.856351  0  .  1
   Li  Li8  1  0.866200  0.884840  0.644020  0  .  1
   Li  Li9  1  0.889344  0.875282  0.810015  0  .  1
   Li  Li10  1  0.865531  0.869879  0.982452  0  .  1
   Mn  Mn11  1  0.490677  0.496844  0.002606  0  .  1
   Mn  Mn12  1  0.501371  0.501114  0.082515  0  .  1
   Mn  Mn13  1  0.501371  0.002425  0.082515  0  .  1
   Mn  Mn14  1  0.493233  0.500232  0.167718  0  .  1
   Mn  Mn15  1  0.999774  0.496140  0.417991  0  .  1
   Mn  Mn16  1  0.493674  0.500456  0.249196  0  .  1
   Mn  Mn17  1  0.845805  0.883886  0.147737  0  .  1
   Mn  Mn18  1  0.493674  0.010692  0.249196  0  .  1
   Mn  Mn19  1  0.501493  0.500403  0.332950  0  .  1
   Mn  Mn20  1  0.497100  0.495348  0.418309  0  .  1
   Mn  Mn21  1  0.866506  0.886820  0.309976  0  .  1
   Mn  Mn22  1  0.495093  0.493294  0.503053  0  .  1
   Mn  Mn23  1  0.497100  0.997699  0.418309  0  .  1
   Mn  Mn24  1  0.499172  0.499839  0.583461  0  .  1
   Mn  Mn25  1  0.006895  0.499744  0.748936  0  .  1
   Mn  Mn26  1  0.507368  0.505769  0.663516  0  .  1
   Mn  Mn27  1  0.499172  0.000218  0.583461  0  .  1
   Mn  Mn28  1  0.508324  0.497723  0.748539  0  .  1
   Mn  Mn29  1  0.992597  0.501452  0.917417  0  .  1
   Mn  Mn30  1  0.500089  0.500524  0.833144  0  .  1
   Mn  Mn31  1  0.508324  0.002717  0.748539  0  .  1
   Mn  Mn32  1  0.491360  0.503475  0.917732  0  .  1
   Mn  Mn33  1  0.491360  0.998772  0.917732  0  .  1
   O  O34  1  0.305958  0.249008  0.038328  0  .  1
   O  O35  1  0.308450  0.244614  0.117054  0  .  1
   O  O36  1  0.305958  0.715066  0.038328  0  .  1
   O  O37  1  0.715808  0.260534  0.043854  0  .  1
   O  O38  1  0.278836  0.742549  0.122678  0  .  1
   O  O39  1  0.298056  0.248036  0.206704  0  .  1
   O  O40  1  0.697304  0.754767  0.048861  0  .  1
   O  O41  1  0.713228  0.291872  0.125125  0  .  1
   O  O42  1  0.298056  0.713684  0.206704  0  .  1
   O  O43  1  0.299936  0.245163  0.284957  0  .  1
   O  O44  1  0.713228  0.744150  0.125125  0  .  1
   O  O45  1  0.712776  0.260621  0.210997  0  .  1
   O  O46  1  0.284392  0.740952  0.288950  0  .  1
   O  O47  1  0.256777  0.264546  0.378867  0  .  1
   O  O48  1  0.697611  0.290178  0.294281  0  .  1
   O  O49  1  0.708200  0.748895  0.215668  0  .  1
   O  O50  1  0.244059  0.265204  0.454255  0  .  1
   O  O51  1  0.256777  0.705475  0.378867  0  .  1
   O  O52  1  0.697611  0.746526  0.294281  0  .  1
   O  O53  1  0.704518  0.263611  0.378043  0  .  1
   O  O54  1  0.295684  0.732560  0.456533  0  .  1
   O  O55  1  0.309659  0.247006  0.538277  0  .  1
   O  O56  1  0.754655  0.732108  0.380188  0  .  1
   O  O57  1  0.745028  0.290667  0.455405  0  .  1
   O  O58  1  0.298122  0.249730  0.617070  0  .  1
   O  O59  1  0.309659  0.713675  0.538277  0  .  1
   O  O60  1  0.745028  0.731875  0.455405  0  .  1
   O  O61  1  0.714405  0.257642  0.545052  0  .  1
   O  O62  1  0.260777  0.264696  0.711354  0  .  1
   O  O63  1  0.284415  0.741573  0.622074  0  .  1
   O  O64  1  0.690557  0.285470  0.628411  0  .  1
   O  O65  1  0.700303  0.750060  0.549930  0  .  1
   O  O66  1  0.258279  0.263412  0.785817  0  .  1
   O  O67  1  0.260777  0.706402  0.711354  0  .  1
   O  O68  1  0.711071  0.266958  0.709169  0  .  1
   O  O69  1  0.690557  0.753512  0.628411  0  .  1
   O  O70  1  0.244172  0.258162  0.880626  0  .  1
   O  O71  1  0.302574  0.733811  0.788300  0  .  1
   O  O72  1  0.755408  0.287083  0.785727  0  .  1
   O  O73  1  0.750457  0.734155  0.713539  0  .  1
   O  O74  1  0.248686  0.267199  0.952819  0  .  1
   O  O75  1  0.244172  0.713909  0.880626  0  .  1
   O  O76  1  0.697862  0.267461  0.877869  0  .  1
   O  O77  1  0.755408  0.743146  0.785727  0  .  1
   O  O78  1  0.287349  0.734375  0.957317  0  .  1
   O  O79  1  0.737957  0.295044  0.955078  0  .  1
   O  O80  1  0.741953  0.737566  0.880486  0  .  1
   O  O81  1  0.737957  0.736529  0.955078  0  .  1
 
