#\#CIF1.1
##########################################################################
#               Crystallographic Information Format file 
#               Produced by PyCifRW module
# 
#  This is a CIF file.  CIF has been adopted by the International
#  Union of Crystallography as the standard for data archiving and 
#  transmission.
#
#  For information on this file format, follow the CIF links at
#  http://www.iucr.org
##########################################################################

data_Li10Fe4S9
_symmetry_space_group_name_H-M          'P 1'
_cell_length_a                          11.7487276
_cell_length_b                          11.7487276
_cell_length_c                          5.71949332
_cell_angle_alpha                       90.0
_cell_angle_beta                        90.0
_cell_angle_gamma                       90.0
_chemical_name_systematic               'Generated by pymatgen'
_symmetry_Int_Tables_number             1
_chemical_formula_structural            Li10Fe4S9
_chemical_formula_sum                   'Li20 Fe8 S18'
_cell_volume                            789.476534895
_cell_formula_units_Z                   2
loop_
  _symmetry_equiv_pos_site_id
  _symmetry_equiv_pos_as_xyz
   1  'x, y, z'
 
loop_
  _atom_site_type_symbol
  _atom_site_label
  _atom_site_symmetry_multiplicity
  _atom_site_fract_x
  _atom_site_fract_y
  _atom_site_fract_z
  _atom_site_attached_hydrogens
  _atom_site_B_iso_or_equiv
  _atom_site_occupancy
   Li  Li1  1  0.066472  0.399839  0.465056  0  .  1
   Li  Li2  1  0.066472  0.100161  0.465056  0  .  1
   Li  Li3  1  0.100161  0.066472  0.965056  0  .  1
   Li  Li4  1  0.100161  0.433528  0.965056  0  .  1
   Li  Li5  1  0.250000  0.250000  0.425140  0  .  1
   Li  Li6  1  0.250000  0.250000  0.925140  0  .  1
   Li  Li7  1  0.399839  0.066472  0.965056  0  .  1
   Li  Li8  1  0.399839  0.433528  0.965056  0  .  1
   Li  Li9  1  0.433528  0.100161  0.465056  0  .  1
   Li  Li10  1  0.433528  0.399839  0.465056  0  .  1
   Li  Li11  1  0.566472  0.600161  0.534944  0  .  1
   Li  Li12  1  0.566472  0.899839  0.534944  0  .  1
   Li  Li13  1  0.600161  0.566472  0.034944  0  .  1
   Li  Li14  1  0.600161  0.933528  0.034944  0  .  1
   Li  Li15  1  0.750000  0.750000  0.074860  0  .  1
   Li  Li16  1  0.750000  0.750000  0.574860  0  .  1
   Li  Li17  1  0.899839  0.933528  0.034944  0  .  1
   Li  Li18  1  0.899839  0.566472  0.034944  0  .  1
   Li  Li19  1  0.933528  0.600161  0.534944  0  .  1
   Li  Li20  1  0.933528  0.899839  0.534944  0  .  1
   Fe  Fe21  1  0.096765  0.750000  0.018515  0  .  1
   Fe  Fe22  1  0.250000  0.903235  0.481485  0  .  1
   Fe  Fe23  1  0.250000  0.596765  0.481485  0  .  1
   Fe  Fe24  1  0.403235  0.750000  0.018515  0  .  1
   Fe  Fe25  1  0.596765  0.250000  0.981485  0  .  1
   Fe  Fe26  1  0.750000  0.096765  0.518515  0  .  1
   Fe  Fe27  1  0.750000  0.403235  0.518515  0  .  1
   Fe  Fe28  1  0.903235  0.250000  0.981485  0  .  1
   S  S29  1  0.085484  0.585484  0.250000  0  .  1
   S  S30  1  0.085484  0.914516  0.250000  0  .  1
   S  S31  1  0.083611  0.250000  0.177647  0  .  1
   S  S32  1  0.250000  0.750000  0.750000  0  .  1
   S  S33  1  0.250000  0.083611  0.677647  0  .  1
   S  S34  1  0.250000  0.416389  0.677647  0  .  1
   S  S35  1  0.416389  0.250000  0.177647  0  .  1
   S  S36  1  0.414516  0.585484  0.250000  0  .  1
   S  S37  1  0.414516  0.914516  0.250000  0  .  1
   S  S38  1  0.585484  0.085484  0.750000  0  .  1
   S  S39  1  0.585484  0.414516  0.750000  0  .  1
   S  S40  1  0.583611  0.750000  0.822353  0  .  1
   S  S41  1  0.750000  0.916389  0.322353  0  .  1
   S  S42  1  0.750000  0.250000  0.250000  0  .  1
   S  S43  1  0.750000  0.583611  0.322353  0  .  1
   S  S44  1  0.916389  0.750000  0.822353  0  .  1
   S  S45  1  0.914516  0.085484  0.750000  0  .  1
   S  S46  1  0.914516  0.414516  0.750000  0  .  1
 
