#\#CIF1.1
##########################################################################
#               Crystallographic Information Format file 
#               Produced by PyCifRW module
# 
#  This is a CIF file.  CIF has been adopted by the International
#  Union of Crystallography as the standard for data archiving and 
#  transmission.
#
#  For information on this file format, follow the CIF links at
#  http://www.iucr.org
##########################################################################

data_Li11Ti24O48
_symmetry_space_group_name_H-M          'P 1'
_cell_length_a                          10.3653917821
_cell_length_b                          10.3654300981
_cell_length_c                          10.3655279442
_cell_angle_alpha                       120.000314894
_cell_angle_beta                        109.463748969
_cell_angle_gamma                       80.4094148558
_chemical_name_systematic               'Generated by pymatgen'
_symmetry_Int_Tables_number             1
_chemical_formula_structural            Li11Ti24O48
_chemical_formula_sum                   'Li11 Ti24 O48'
_cell_volume                            909.363434626
_cell_formula_units_Z                   1
loop_
  _symmetry_equiv_pos_site_id
  _symmetry_equiv_pos_as_xyz
   1  'x, y, z'
 
loop_
  _atom_site_type_symbol
  _atom_site_label
  _atom_site_symmetry_multiplicity
  _atom_site_fract_x
  _atom_site_fract_y
  _atom_site_fract_z
  _atom_site_attached_hydrogens
  _atom_site_B_iso_or_equiv
  _atom_site_occupancy
   Li  Li1  1  0.625053  0.666706  0.208349  0  .  1
   Li  Li2  1  0.500063  0.333286  0.166696  0  .  1
   Li  Li3  1  0.625053  0.333294  0.541643  0  .  1
   Li  Li4  1  0.124684  0.332639  0.041562  0  .  1
   Li  Li5  1  0.500062  0.000000  0.499958  0  .  1
   Li  Li6  1  0.500063  0.666714  0.833410  0  .  1
   Li  Li7  1  0.999933  0.666666  0.333307  0  .  1
   Li  Li8  1  0.625784  0.000000  0.875303  0  .  1
   Li  Li9  1  0.124680  0.000000  0.374202  0  .  1
   Li  Li10  1  0.124684  0.667361  0.708923  0  .  1
   Li  Li11  1  0.999933  0.333334  0.666641  0  .  1
   Ti  Ti12  1  0.813913  0.833772  0.103035  0  .  1
   Ti  Ti13  1  0.813904  0.331313  0.104241  0  .  1
   Ti  Ti14  1  0.813913  0.166228  0.269263  0  .  1
   Ti  Ti15  1  0.813899  0.834945  0.606641  0  .  1
   Ti  Ti16  1  0.812050  0.500033  0.437400  0  .  1
   Ti  Ti17  1  0.310831  0.834942  0.103573  0  .  1
   Ti  Ti18  1  0.812047  0.000000  0.437263  0  .  1
   Ti  Ti19  1  0.813904  0.668687  0.772928  0  .  1
   Ti  Ti20  1  0.562800  0.000000  0.187970  0  .  1
   Ti  Ti21  1  0.061331  0.668655  0.020429  0  .  1
   Ti  Ti22  1  0.563021  0.666272  0.520619  0  .  1
   Ti  Ti23  1  0.312505  0.666244  0.270193  0  .  1
   Ti  Ti24  1  0.813899  0.165055  0.771696  0  .  1
   Ti  Ti25  1  0.310831  0.165058  0.268631  0  .  1
   Ti  Ti26  1  0.312510  0.499805  0.437970  0  .  1
   Ti  Ti27  1  0.312547  0.833952  0.604377  0  .  1
   Ti  Ti28  1  0.812050  0.499967  0.937368  0  .  1
   Ti  Ti29  1  0.312505  0.333756  0.603950  0  .  1
   Ti  Ti30  1  0.061331  0.331345  0.351775  0  .  1
   Ti  Ti31  1  0.563021  0.333728  0.854347  0  .  1
   Ti  Ti32  1  0.312547  0.166048  0.770424  0  .  1
   Ti  Ti33  1  0.312510  0.500195  0.938165  0  .  1
   Ti  Ti34  1  0.310853  0.000000  0.938631  0  .  1
   Ti  Ti35  1  0.061314  1.000000  0.689132  0  .  1
   O  O36  1  0.931383  0.666292  0.127564  0  .  1
   O  O37  1  0.693653  0.849932  0.231311  0  .  1
   O  O38  1  0.693625  0.483559  0.047955  0  .  1
   O  O39  1  0.929725  0.187334  0.163911  0  .  1
   O  O40  1  0.931316  0.484189  0.310822  0  .  1
   O  O41  1  0.931326  0.849509  0.492967  0  .  1
   O  O42  1  0.931383  0.333708  0.461271  0  .  1
   O  O43  1  0.705518  0.333633  0.235391  0  .  1
   O  O44  1  0.918817  1.000000  0.306703  0  .  1
   O  O45  1  0.693569  0.666533  0.414349  0  .  1
   O  O46  1  0.693276  0.000000  0.081165  0  .  1
   O  O47  1  0.418955  0.666539  0.139688  0  .  1
   O  O48  1  0.918788  0.666249  0.639235  0  .  1
   O  O49  1  0.693653  0.150068  0.381379  0  .  1
   O  O50  1  0.693625  0.516441  0.564396  0  .  1
   O  O51  1  0.193806  0.516338  0.064551  0  .  1
   O  O52  1  0.193951  0.816602  0.214995  0  .  1
   O  O53  1  0.693286  0.816626  0.714380  0  .  1
   O  O54  1  0.431785  0.150542  0.143937  0  .  1
   O  O55  1  0.931326  0.150491  0.643457  0  .  1
   O  O56  1  0.931316  0.515811  0.826633  0  .  1
   O  O57  1  0.431344  0.816849  0.477086  0  .  1
   O  O58  1  0.431278  0.516347  0.326865  0  .  1
   O  O59  1  0.929725  0.812666  0.976576  0  .  1
   O  O60  1  0.929772  1.000000  0.789229  0  .  1
   O  O61  1  0.431743  1.000000  0.294452  0  .  1
   O  O62  1  0.431398  0.666701  0.627332  0  .  1
   O  O63  1  0.705526  0.000000  0.568249  0  .  1
   O  O64  1  0.705518  0.666367  0.901759  0  .  1
   O  O65  1  0.210789  0.000000  0.070220  0  .  1
   O  O66  1  0.206082  0.666635  0.401964  0  .  1
   O  O67  1  0.418955  0.333461  0.473150  0  .  1
   O  O68  1  0.918788  0.333751  0.972986  0  .  1
   O  O69  1  0.193897  0.333754  0.248048  0  .  1
   O  O70  1  0.693569  0.333467  0.747816  0  .  1
   O  O71  1  0.193951  0.183398  0.398392  0  .  1
   O  O72  1  0.193806  0.483662  0.548212  0  .  1
   O  O73  1  0.693286  0.183374  0.897754  0  .  1
   O  O74  1  0.193948  0.849631  0.730883  0  .  1
   O  O75  1  0.431344  0.183151  0.660239  0  .  1
   O  O76  1  0.431278  0.483653  0.810519  0  .  1
   O  O77  1  0.431785  0.849458  0.993395  0  .  1
   O  O78  1  0.206082  0.333365  0.735328  0  .  1
   O  O79  1  0.431398  0.333299  0.960630  0  .  1
   O  O80  1  0.419023  1.000000  0.806271  0  .  1
   O  O81  1  0.193757  0.000000  0.581016  0  .  1
   O  O82  1  0.193897  0.666246  0.914294  0  .  1
   O  O83  1  0.193948  0.150369  0.881253  0  .  1
 
