#\#CIF1.1
##########################################################################
#               Crystallographic Information Format file 
#               Produced by PyCifRW module
# 
#  This is a CIF file.  CIF has been adopted by the International
#  Union of Crystallography as the standard for data archiving and 
#  transmission.
#
#  For information on this file format, follow the CIF links at
#  http://www.iucr.org
##########################################################################

data_Li11(NiO2)12
_symmetry_space_group_name_H-M          'P 1'
_cell_length_a                          20.1547819837
_cell_length_b                          24.3439436777
_cell_length_c                          9.75054542173
_cell_angle_alpha                       15.5929173
_cell_angle_beta                        28.9027217661
_cell_angle_gamma                       19.9613254244
_chemical_name_systematic               'Generated by pymatgen'
_symmetry_Int_Tables_number             1
_chemical_formula_structural            Li11(NiO2)12
_chemical_formula_sum                   'Li11 Ni12 O24'
_cell_volume                            415.070323915
_cell_formula_units_Z                   1
loop_
  _symmetry_equiv_pos_site_id
  _symmetry_equiv_pos_as_xyz
   1  'x, y, z'
 
loop_
  _atom_site_type_symbol
  _atom_site_label
  _atom_site_symmetry_multiplicity
  _atom_site_fract_x
  _atom_site_fract_y
  _atom_site_fract_z
  _atom_site_attached_hydrogens
  _atom_site_B_iso_or_equiv
  _atom_site_occupancy
   Li  Li1  1  0.250818  1.000000  -0.000539  0  .  1
   Li  Li2  1  0.081495  0.326385  0.019627  0  .  1
   Li  Li3  1  0.500000  0.000000  0.000000  0  .  1
   Li  Li4  1  0.325732  0.348535  0.977197  0  .  1
   Li  Li5  1  0.749182  0.000000  1.000539  0  .  1
   Li  Li6  1  0.169544  0.660913  1.008631  0  .  1
   Li  Li7  1  0.592119  0.326385  1.001216  0  .  1
   Li  Li8  1  0.407881  0.673615  -0.001216  0  .  1
   Li  Li9  1  0.830456  0.339087  -0.008631  0  .  1
   Li  Li10  1  0.674268  0.651465  0.022803  0  .  1
   Li  Li11  1  0.918505  0.673615  0.980373  0  .  1
   Ni  Ni12  1  0.124713  0.000000  0.498876  0  .  1
   Ni  Ni13  1  0.376564  0.000000  0.495523  0  .  1
   Ni  Ni14  1  0.210672  0.331314  0.502173  0  .  1
   Ni  Ni15  1  0.623436  1.000000  0.504477  0  .  1
   Ni  Ni16  1  0.040544  0.666928  0.501999  0  .  1
   Ni  Ni17  1  0.458013  0.331314  0.503884  0  .  1
   Ni  Ni18  1  0.875287  1.000000  0.501124  0  .  1
   Ni  Ni19  1  0.292529  0.666928  0.497218  0  .  1
   Ni  Ni20  1  0.707471  0.333072  0.502782  0  .  1
   Ni  Ni21  1  0.541987  0.668686  0.496116  0  .  1
   Ni  Ni22  1  0.959456  0.333072  0.498001  0  .  1
   Ni  Ni23  1  0.789328  0.668686  0.497827  0  .  1
   O  O24  1  0.069798  0.000000  0.222125  0  .  1
   O  O25  1  0.318064  0.000000  0.222482  0  .  1
   O  O26  1  0.139755  0.336954  0.236824  0  .  1
   O  O27  1  0.553309  1.000000  0.256440  0  .  1
   O  O28  1  0.026965  0.341932  0.725890  0  .  1
   O  O29  1  0.390467  0.330400  0.257129  0  .  1
   O  O30  1  0.796796  1.000000  0.269554  0  .  1
   O  O31  1  0.279131  0.330400  0.751670  0  .  1
   O  O32  1  0.236429  0.641412  0.278067  0  .  1
   O  O33  1  0.631102  0.341932  0.248314  0  .  1
   O  O34  1  0.122160  0.641412  0.797698  0  .  1
   O  O35  1  0.523290  0.336954  0.752312  0  .  1
   O  O36  1  0.476710  0.663046  0.247688  0  .  1
   O  O37  1  0.877840  0.358588  0.202302  0  .  1
   O  O38  1  0.368898  0.658068  0.751686  0  .  1
   O  O39  1  0.763571  0.358588  0.721933  0  .  1
   O  O40  1  0.720869  0.669600  0.248330  0  .  1
   O  O41  1  0.203204  0.000000  0.730446  0  .  1
   O  O42  1  0.609533  0.669600  0.742871  0  .  1
   O  O43  1  0.973035  0.658068  0.274110  0  .  1
   O  O44  1  0.446691  0.000000  0.743560  0  .  1
   O  O45  1  0.860245  0.663046  0.763176  0  .  1
   O  O46  1  0.681936  1.000000  0.777518  0  .  1
   O  O47  1  0.930202  1.000000  0.777875  0  .  1
 
