#\#CIF1.1
##########################################################################
#               Crystallographic Information Format file 
#               Produced by PyCifRW module
# 
#  This is a CIF file.  CIF has been adopted by the International
#  Union of Crystallography as the standard for data archiving and 
#  transmission.
#
#  For information on this file format, follow the CIF links at
#  http://www.iucr.org
##########################################################################

data_Li12Cr5O16
_symmetry_space_group_name_H-M          'P 1'
_cell_length_a                          5.83926188912
_cell_length_b                          5.85296669265
_cell_length_c                          9.65833262004
_cell_angle_alpha                       89.8985679276
_cell_angle_beta                        90.1271230653
_cell_angle_gamma                       120.133362008
_chemical_name_systematic               'Generated by pymatgen'
_symmetry_Int_Tables_number             1
_chemical_formula_structural            Li12Cr5O16
_chemical_formula_sum                   'Li12 Cr5 O16'
_cell_volume                            285.483102462
_cell_formula_units_Z                   1
loop_
  _symmetry_equiv_pos_site_id
  _symmetry_equiv_pos_as_xyz
   1  'x, y, z'
 
loop_
  _atom_site_type_symbol
  _atom_site_label
  _atom_site_symmetry_multiplicity
  _atom_site_fract_x
  _atom_site_fract_y
  _atom_site_fract_z
  _atom_site_attached_hydrogens
  _atom_site_B_iso_or_equiv
  _atom_site_occupancy
   Li  Li1  1  0.012996  0.009377  0.075733  0  .  1
   Li  Li2  1  0.172587  0.347273  0.735666  0  .  1
   Li  Li3  1  0.379836  0.214187  0.957410  0  .  1
   Li  Li4  1  0.362497  0.160022  0.237519  0  .  1
   Li  Li5  1  0.207019  0.370984  0.490467  0  .  1
   Li  Li6  1  0.666451  0.354994  0.745507  0  .  1
   Li  Li7  1  0.829410  0.209049  0.962865  0  .  1
   Li  Li8  1  0.361267  0.680857  0.251323  0  .  1
   Li  Li9  1  0.178871  0.843860  0.463812  0  .  1
   Li  Li10  1  0.824664  0.159525  0.234402  0  .  1
   Li  Li11  1  0.827248  0.655340  0.956896  0  .  1
   Li  Li12  1  0.711052  0.848195  0.459469  0  .  1
   Cr  Cr13  1  0.175300  0.842870  0.725114  0  .  1
   Cr  Cr14  1  0.671908  0.843615  0.725706  0  .  1
   Cr  Cr15  1  0.666093  0.301061  0.487732  0  .  1
   Cr  Cr16  1  0.340608  0.663905  0.986597  0  .  1
   Cr  Cr17  1  0.847440  0.630603  0.237921  0  .  1
   O  O18  1  0.343103  0.161152  0.602115  0  .  1
   O  O19  1  0.036346  0.543626  0.852874  0  .  1
   O  O20  1  0.525282  0.020832  0.369006  0  .  1
   O  O21  1  0.183447  0.357861  0.081400  0  .  1
   O  O22  1  0.833816  0.175520  0.601933  0  .  1
   O  O23  1  0.508699  0.533860  0.852170  0  .  1
   O  O24  1  0.544621  0.494559  0.360511  0  .  1
   O  O25  1  0.167242  0.810968  0.110943  0  .  1
   O  O26  1  0.338590  0.694883  0.618358  0  .  1
   O  O27  1  0.693303  0.378499  0.115658  0  .  1
   O  O28  1  0.496185  0.993702  0.851806  0  .  1
   O  O29  1  0.990975  0.493019  0.357431  0  .  1
   O  O30  1  0.839137  0.671203  0.608283  0  .  1
   O  O31  1  0.654201  0.835629  0.092354  0  .  1
   O  O32  1  0.985379  0.952821  0.309738  0  .  1
   O  O33  1  0.010019  0.995687  0.836073  0  .  1
 
