#\#CIF1.1
##########################################################################
#               Crystallographic Information Format file 
#               Produced by PyCifRW module
# 
#  This is a CIF file.  CIF has been adopted by the International
#  Union of Crystallography as the standard for data archiving and 
#  transmission.
#
#  For information on this file format, follow the CIF links at
#  http://www.iucr.org
##########################################################################

data_Li13Ti28O56
_symmetry_space_group_name_H-M          'P 1'
_cell_length_a                          10.3652207431
_cell_length_b                          10.3641573639
_cell_length_c                          10.3652698295
_cell_angle_alpha                       80.4697874745
_cell_angle_beta                        99.5516773106
_cell_angle_gamma                       80.4620015776
_chemical_name_systematic               'Generated by pymatgen'
_symmetry_Int_Tables_number             1
_chemical_formula_structural            Li13Ti28O56
_chemical_formula_sum                   'Li13 Ti28 O56'
_cell_volume                            1061.33700202
_cell_formula_units_Z                   1
loop_
  _symmetry_equiv_pos_site_id
  _symmetry_equiv_pos_as_xyz
   1  'x, y, z'
 
loop_
  _atom_site_type_symbol
  _atom_site_label
  _atom_site_symmetry_multiplicity
  _atom_site_fract_x
  _atom_site_fract_y
  _atom_site_fract_z
  _atom_site_attached_hydrogens
  _atom_site_B_iso_or_equiv
  _atom_site_occupancy
   Li  Li1  1  0.089126  0.697243  0.732394  0  .  1
   Li  Li2  1  0.339259  0.446378  0.982173  0  .  1
   Li  Li3  1  0.196468  0.732158  0.410747  0  .  1
   Li  Li4  1  0.374184  0.124758  0.874849  0  .  1
   Li  Li5  1  0.517754  0.839486  0.446435  0  .  1
   Li  Li6  1  0.231935  0.410707  0.303463  0  .  1
   Li  Li7  1  0.482167  0.160586  0.553678  0  .  1
   Li  Li8  1  0.767963  0.589248  0.696568  0  .  1
   Li  Li9  1  0.625035  0.874968  0.124965  0  .  1
   Li  Li10  1  0.946684  0.982305  0.159882  0  .  1
   Li  Li11  1  0.804256  0.267172  0.589984  0  .  1
   Li  Li12  1  0.660736  0.553677  0.017641  0  .  1
   Li  Li13  1  0.910857  0.303466  0.267864  0  .  1
   Ti  Ti14  1  0.070997  0.355055  0.786702  0  .  1
   Ti  Ti15  1  0.000690  0.500084  0.500318  0  .  1
   Ti  Ti16  1  0.355110  0.786967  0.928715  0  .  1
   Ti  Ti17  1  0.283718  0.929583  0.643583  0  .  1
   Ti  Ti18  1  0.285158  0.428814  0.642537  0  .  1
   Ti  Ti19  1  0.142282  0.212551  0.572826  0  .  1
   Ti  Ti20  1  0.000933  0.000390  0.502061  0  .  1
   Ti  Ti21  1  0.142922  0.716309  0.070147  0  .  1
   Ti  Ti22  1  0.284439  0.928486  0.140850  0  .  1
   Ti  Ti23  1  0.428952  0.643188  0.714471  0  .  1
   Ti  Ti24  1  0.999840  0.499983  0.000459  0  .  1
   Ti  Ti25  1  0.571442  0.856690  0.785538  0  .  1
   Ti  Ti26  1  0.141851  0.213510  0.069392  0  .  1
   Ti  Ti27  1  0.214806  0.071628  0.357077  0  .  1
   Ti  Ti28  1  0.857906  0.787711  0.927555  0  .  1
   Ti  Ti29  1  0.787067  0.929118  0.644684  0  .  1
   Ti  Ti30  1  0.571412  0.356825  0.786347  0  .  1
   Ti  Ti31  1  0.428282  0.643138  0.214074  0  .  1
   Ti  Ti32  1  0.500012  0.499904  0.500174  0  .  1
   Ti  Ti33  1  0.428144  0.142701  0.214665  0  .  1
   Ti  Ti34  1  0.571496  0.357037  0.285637  0  .  1
   Ti  Ti35  1  0.714463  0.571429  0.357284  0  .  1
   Ti  Ti36  1  0.856812  0.786239  0.428322  0  .  1
   Ti  Ti37  1  0.716387  0.070483  0.856830  0  .  1
   Ti  Ti38  1  0.858953  0.284337  0.927994  0  .  1
   Ti  Ti39  1  0.714552  0.070778  0.357077  0  .  1
   Ti  Ti40  1  0.928695  0.642479  0.213871  0  .  1
   Ti  Ti41  1  0.642593  0.214641  0.070840  0  .  1
   O  O42  1  0.030045  0.676591  0.909036  0  .  1
   O  O43  1  0.194528  0.876948  0.980256  0  .  1
   O  O44  1  0.162719  0.387790  0.962728  0  .  1
   O  O45  1  0.019580  0.673056  0.391073  0  .  1
   O  O46  1  0.033636  0.198926  0.899927  0  .  1
   O  O47  1  0.177030  0.908721  0.469328  0  .  1
   O  O48  1  0.108877  0.519727  0.672875  0  .  1
   O  O49  1  0.266266  0.755298  0.751508  0  .  1
   O  O50  1  0.394871  0.948101  0.815734  0  .  1
   O  O51  1  0.458858  0.819585  0.623368  0  .  1
   O  O52  1  0.237586  0.262718  0.737405  0  .  1
   O  O53  1  0.380315  0.977013  0.308986  0  .  1
   O  O54  1  0.173096  0.391296  0.480427  0  .  1
   O  O55  1  0.523252  0.691092  0.880123  0  .  1
   O  O56  1  0.094408  0.548148  0.166021  0  .  1
   O  O57  1  0.333954  0.594654  0.548226  0  .  1
   O  O58  1  0.048090  0.166319  0.404841  0  .  1
   O  O59  1  0.683647  0.894412  0.948428  0  .  1
   O  O60  1  0.398379  0.465997  0.805296  0  .  1
   O  O61  1  0.114147  0.037824  0.658164  0  .  1
   O  O62  1  0.255650  0.751278  0.234553  0  .  1
   O  O63  1  0.462590  0.337541  0.612681  0  .  1
   O  O64  1  0.872462  0.957327  0.819301  0  .  1
   O  O65  1  0.448842  0.815698  0.105696  0  .  1
   O  O66  1  0.591092  0.530089  0.676871  0  .  1
   O  O67  1  0.748048  0.765612  0.755371  0  .  1
   O  O68  1  0.320147  0.622546  0.041515  0  .  1
   O  O69  1  0.305788  0.101805  0.533741  0  .  1
   O  O70  1  0.694713  0.898360  0.465833  0  .  1
   O  O71  1  0.551707  0.184278  0.894600  0  .  1
   O  O72  1  0.409013  0.469763  0.323233  0  .  1
   O  O73  1  0.251814  0.233794  0.244577  0  .  1
   O  O74  1  0.123316  0.041374  0.180647  0  .  1
   O  O75  1  0.680105  0.376714  0.958782  0  .  1
   O  O76  1  0.537346  0.662473  0.387239  0  .  1
   O  O77  1  0.951681  0.833855  0.594396  0  .  1
   O  O78  1  0.744173  0.248520  0.765995  0  .  1
   O  O79  1  0.316142  0.105647  0.051998  0  .  1
   O  O80  1  0.601697  0.534052  0.194733  0  .  1
   O  O81  1  0.887200  0.962576  0.337444  0  .  1
   O  O82  1  0.666091  0.405278  0.451851  0  .  1
   O  O83  1  0.541325  0.180241  0.376810  0  .  1
   O  O84  1  0.762508  0.737519  0.262487  0  .  1
   O  O85  1  0.476780  0.308935  0.119636  0  .  1
   O  O86  1  0.619114  0.023339  0.690807  0  .  1
   O  O87  1  0.905101  0.452343  0.833803  0  .  1
   O  O88  1  0.826944  0.608845  0.519589  0  .  1
   O  O89  1  0.733906  0.244479  0.248227  0  .  1
   O  O90  1  0.891141  0.480313  0.327080  0  .  1
   O  O91  1  0.605413  0.051868  0.184106  0  .  1
   O  O92  1  0.822905  0.091131  0.529859  0  .  1
   O  O93  1  0.837667  0.612561  0.037559  0  .  1
   O  O94  1  0.965789  0.805177  0.101822  0  .  1
   O  O95  1  0.980310  0.327240  0.608682  0  .  1
   O  O96  1  0.808715  0.119747  0.023316  0  .  1
   O  O97  1  0.969574  0.323404  0.091455  0  .  1
 
