#\#CIF1.1
##########################################################################
#               Crystallographic Information Format file 
#               Produced by PyCifRW module
# 
#  This is a CIF file.  CIF has been adopted by the International
#  Union of Crystallography as the standard for data archiving and 
#  transmission.
#
#  For information on this file format, follow the CIF links at
#  http://www.iucr.org
##########################################################################

data_Li13Ni15O28
_symmetry_space_group_name_H-M          'P 1'
_cell_length_a                          8.15507811042
_cell_length_b                          8.76603239948
_cell_length_c                          7.66995532285
_cell_angle_alpha                       105.161299544
_cell_angle_beta                        105.137373628
_cell_angle_gamma                       103.331738664
_chemical_name_systematic               'Generated by pymatgen'
_symmetry_Int_Tables_number             1
_chemical_formula_structural            Li13Ni15O28
_chemical_formula_sum                   'Li13 Ni15 O28'
_cell_volume                            483.860374472
_cell_formula_units_Z                   1
loop_
  _symmetry_equiv_pos_site_id
  _symmetry_equiv_pos_as_xyz
   1  'x, y, z'
 
loop_
  _atom_site_type_symbol
  _atom_site_label
  _atom_site_symmetry_multiplicity
  _atom_site_fract_x
  _atom_site_fract_y
  _atom_site_fract_z
  _atom_site_attached_hydrogens
  _atom_site_B_iso_or_equiv
  _atom_site_occupancy
   Li  Li1  1  0.287872  0.213081  0.928718  0  .  1
   Li  Li2  1  0.069757  0.427977  0.859908  0  .  1
   Li  Li3  1  0.430102  0.069544  0.641628  0  .  1
   Li  Li4  1  0.857521  0.642280  0.783251  0  .  1
   Li  Li5  1  0.998469  0.501885  0.501229  0  .  1
   Li  Li6  1  0.642763  0.859335  0.717173  0  .  1
   Li  Li7  1  0.358815  0.143451  0.282949  0  .  1
   Li  Li8  1  0.501422  0.001069  0.999661  0  .  1
   Li  Li9  1  0.140699  0.358347  0.214139  0  .  1
   Li  Li10  1  0.785809  0.712093  0.425684  0  .  1
   Li  Li11  1  0.571051  0.929148  0.359606  0  .  1
   Li  Li12  1  0.927150  0.570360  0.143196  0  .  1
   Li  Li13  1  0.714286  0.785714  0.071429  0  .  1
   Ni  Ni14  1  0.783450  0.211301  0.925203  0  .  1
   Ni  Ni15  1  0.571487  0.427927  0.858489  0  .  1
   Ni  Ni16  1  0.929324  0.068739  0.639703  0  .  1
   Ni  Ni17  1  0.214286  0.285714  0.571429  0  .  1
   Ni  Ni18  1  0.355839  0.641189  0.790237  0  .  1
   Ni  Ni19  1  0.714286  0.285714  0.571429  0  .  1
   Ni  Ni20  1  0.143253  0.857836  0.709433  0  .  1
   Ni  Ni21  1  0.499247  0.502689  0.503154  0  .  1
   Ni  Ni22  1  0.857085  0.143502  0.284369  0  .  1
   Ni  Ni23  1  0.285318  0.713593  0.433424  0  .  1
   Ni  Ni24  1  0.645122  0.360128  0.217655  0  .  1
   Ni  Ni25  1  0.997815  0.999598  0.996188  0  .  1
   Ni  Ni26  1  0.430757  0.571830  0.146669  0  .  1
   Ni  Ni27  1  0.072733  0.930240  0.352620  0  .  1
   Ni  Ni28  1  0.214286  0.785714  0.071429  0  .  1
   O  O29  1  0.019542  0.193602  0.914914  0  .  1
   O  O30  1  0.549906  0.229831  0.936653  0  .  1
   O  O31  1  0.681700  0.089283  0.643806  0  .  1
   O  O32  1  0.800159  0.422035  0.842497  0  .  1
   O  O33  1  0.176849  0.064072  0.620245  0  .  1
   O  O34  1  0.338122  0.425129  0.860097  0  .  1
   O  O35  1  0.586503  0.627295  0.776772  0  .  1
   O  O36  1  0.125708  0.649481  0.807142  0  .  1
   O  O37  1  0.231856  0.989738  0.981443  0  .  1
   O  O38  1  0.964839  0.268798  0.579219  0  .  1
   O  O39  1  0.463732  0.302630  0.563638  0  .  1
   O  O40  1  0.251722  0.507356  0.522613  0  .  1
   O  O41  1  0.628413  0.149394  0.300360  0  .  1
   O  O42  1  0.746871  0.482145  0.499051  0  .  1
   O  O43  1  0.090450  0.146299  0.282760  0  .  1
   O  O44  1  0.373376  0.847882  0.703299  0  .  1
   O  O45  1  0.908889  0.866344  0.701994  0  .  1
   O  O46  1  0.519682  0.705085  0.440863  0  .  1
   O  O47  1  0.055195  0.723547  0.439558  0  .  1
   O  O48  1  0.878665  0.341597  0.206204  0  .  1
   O  O49  1  0.762155  0.000724  0.999253  0  .  1
   O  O50  1  0.409030  0.377827  0.227943  0  .  1
   O  O51  1  0.842069  0.944133  0.366085  0  .  1
   O  O52  1  0.196715  0.581691  0.161414  0  .  1
   O  O53  1  0.302863  0.921947  0.335716  0  .  1
   O  O54  1  0.666416  0.570704  0.143604  0  .  1
   O  O55  1  0.452466  0.766479  0.066034  0  .  1
   O  O56  1  0.976105  0.804949  0.076823  0  .  1
 
