#\#CIF1.1
##########################################################################
#               Crystallographic Information Format file 
#               Produced by PyCifRW module
# 
#  This is a CIF file.  CIF has been adopted by the International
#  Union of Crystallography as the standard for data archiving and 
#  transmission.
#
#  For information on this file format, follow the CIF links at
#  http://www.iucr.org
##########################################################################

data_Li13(Mn3As4)2
_symmetry_space_group_name_H-M          'P 1'
_cell_length_a                          6.03869467603
_cell_length_b                          12.0858034555
_cell_length_c                          8.61995652186
_cell_angle_alpha                       45.3844262173
_cell_angle_beta                        89.9598968736
_cell_angle_gamma                       89.9909147547
_chemical_name_systematic               'Generated by pymatgen'
_symmetry_Int_Tables_number             1
_chemical_formula_structural            Li13(Mn3As4)2
_chemical_formula_sum                   'Li13 Mn6 As8'
_cell_volume                            447.819456779
_cell_formula_units_Z                   1
loop_
  _symmetry_equiv_pos_site_id
  _symmetry_equiv_pos_as_xyz
   1  'x, y, z'
 
loop_
  _atom_site_type_symbol
  _atom_site_label
  _atom_site_symmetry_multiplicity
  _atom_site_fract_x
  _atom_site_fract_y
  _atom_site_fract_z
  _atom_site_attached_hydrogens
  _atom_site_B_iso_or_equiv
  _atom_site_occupancy
   Li  Li1  1  0.016181  0.997254  0.017484  0  .  1
   Li  Li2  1  0.012390  0.752026  0.508169  0  .  1
   Li  Li3  1  0.983407  0.997546  0.493611  0  .  1
   Li  Li4  1  0.247486  0.006692  0.748860  0  .  1
   Li  Li5  1  0.472019  0.498289  0.502348  0  .  1
   Li  Li6  1  0.517210  0.998813  0.493246  0  .  1
   Li  Li7  1  0.499888  0.262098  0.477453  0  .  1
   Li  Li8  1  0.488600  0.752266  0.508529  0  .  1
   Li  Li9  1  0.483100  0.996902  0.016145  0  .  1
   Li  Li10  1  0.749722  0.239947  0.756504  0  .  1
   Li  Li11  1  0.750330  0.753888  0.253645  0  .  1
   Li  Li12  1  0.998184  0.262374  0.476398  0  .  1
   Li  Li13  1  0.026110  0.497839  0.502594  0  .  1
   Mn  Mn14  1  0.490588  0.247331  0.009348  0  .  1
   Mn  Mn15  1  0.499979  0.741647  0.000819  0  .  1
   Mn  Mn16  1  0.501983  0.500175  0.000272  0  .  1
   Mn  Mn17  1  0.005748  0.247566  0.010228  0  .  1
   Mn  Mn18  1  0.996380  0.500415  0.999360  0  .  1
   Mn  Mn19  1  -0.000191  0.740342  0.001712  0  .  1
   As  As20  1  0.248776  0.243820  0.757146  0  .  1
   As  As21  1  0.249442  0.740749  0.768863  0  .  1
   As  As22  1  0.249650  0.255145  0.244206  0  .  1
   As  As23  1  0.249294  0.751779  0.235014  0  .  1
   As  As24  1  0.749081  0.004718  0.235250  0  .  1
   As  As25  1  0.749366  0.502919  0.243135  0  .  1
   As  As26  1  0.749924  0.991215  0.769926  0  .  1
   As  As27  1  0.748156  0.493530  0.760092  0  .  1
 
