#\#CIF1.1
##########################################################################
#               Crystallographic Information Format file 
#               Produced by PyCifRW module
# 
#  This is a CIF file.  CIF has been adopted by the International
#  Union of Crystallography as the standard for data archiving and 
#  transmission.
#
#  For information on this file format, follow the CIF links at
#  http://www.iucr.org
##########################################################################

data_Li13V24O52
_symmetry_space_group_name_H-M          'P 1'
_cell_length_a                          11.6869127166
_cell_length_b                          8.52092057725
_cell_length_c                          11.1731723464
_cell_angle_alpha                       97.8384075863
_cell_angle_beta                        69.8670066881
_cell_angle_gamma                       76.3928219451
_chemical_name_systematic               'Generated by pymatgen'
_symmetry_Int_Tables_number             1
_chemical_formula_structural            Li13V24O52
_chemical_formula_sum                   'Li13 V24 O52'
_cell_volume                            986.127724648
_cell_formula_units_Z                   1
loop_
  _symmetry_equiv_pos_site_id
  _symmetry_equiv_pos_as_xyz
   1  'x, y, z'
 
loop_
  _atom_site_type_symbol
  _atom_site_label
  _atom_site_symmetry_multiplicity
  _atom_site_fract_x
  _atom_site_fract_y
  _atom_site_fract_z
  _atom_site_attached_hydrogens
  _atom_site_B_iso_or_equiv
  _atom_site_occupancy
   Li  Li1  1  0.153608  0.879764  0.588705  0  .  1
   Li  Li2  1  0.002788  0.997495  0.999837  0  .  1
   Li  Li3  1  0.250324  0.247718  0.999878  0  .  1
   Li  Li4  1  0.496974  0.501240  0.000546  0  .  1
   Li  Li5  1  0.756931  0.747033  0.981652  0  .  1
   Li  Li6  1  0.344881  0.619939  0.413409  0  .  1
   Li  Li7  1  0.094105  0.371138  0.413182  0  .  1
   Li  Li8  1  0.595182  0.869729  0.416361  0  .  1
   Li  Li9  1  0.547162  0.025080  0.191120  0  .  1
   Li  Li10  1  0.654710  0.380504  0.588749  0  .  1
   Li  Li11  1  0.904204  0.630463  0.587512  0  .  1
   Li  Li12  1  0.404895  0.129518  0.586982  0  .  1
   Li  Li13  1  0.846866  0.119038  0.413280  0  .  1
   V  V14  1  0.117751  0.680687  0.365402  0  .  1
   V  V15  1  0.363423  0.930522  0.370621  0  .  1
   V  V16  1  0.506295  0.820149  0.996211  0  .  1
   V  V17  1  0.008875  0.319179  0.002706  0  .  1
   V  V18  1  0.253574  0.567797  0.001600  0  .  1
   V  V19  1  0.245929  0.922539  0.998453  0  .  1
   V  V20  1  0.130099  0.570570  0.635446  0  .  1
   V  V21  1  0.381042  0.820170  0.634924  0  .  1
   V  V22  1  0.606173  0.535187  0.365041  0  .  1
   V  V23  1  0.857559  0.782712  0.363780  0  .  1
   V  V24  1  0.108025  0.033235  0.363518  0  .  1
   V  V25  1  0.353753  0.286401  0.370387  0  .  1
   V  V26  1  0.140711  0.218182  0.636280  0  .  1
   V  V27  1  0.643554  0.716318  0.634377  0  .  1
   V  V28  1  0.391973  0.468339  0.635875  0  .  1
   V  V29  1  0.892855  0.968536  0.635223  0  .  1
   V  V30  1  0.619471  0.184445  0.370723  0  .  1
   V  V31  1  0.869091  0.430333  0.365948  0  .  1
   V  V32  1  0.760034  0.076101  0.998155  0  .  1
   V  V33  1  0.496087  0.178761  0.997499  0  .  1
   V  V34  1  0.744522  0.429335  0.001117  0  .  1
   V  V35  1  0.990812  0.678202  0.998765  0  .  1
   V  V36  1  0.631706  0.069499  0.634285  0  .  1
   V  V37  1  0.882206  0.318300  0.634476  0  .  1
   O  O38  1  0.164380  0.994091  0.198521  0  .  1
   O  O39  1  0.620358  0.961723  0.005313  0  .  1
   O  O40  1  0.113467  0.455867  0.000135  0  .  1
   O  O41  1  0.369253  0.719462  0.999207  0  .  1
   O  O42  1  0.221002  0.833201  0.391999  0  .  1
   O  O43  1  0.031573  0.752689  0.583232  0  .  1
   O  O44  1  0.183228  0.624953  0.198503  0  .  1
   O  O45  1  0.436422  0.878750  0.201964  0  .  1
   O  O46  1  0.313330  0.876177  0.801772  0  .  1
   O  O47  1  0.063980  0.624408  0.801745  0  .  1
   O  O48  1  0.125837  0.123678  0.000816  0  .  1
   O  O49  1  0.373918  0.373055  0.002041  0  .  1
   O  O50  1  0.621168  0.630671  0.998617  0  .  1
   O  O51  1  0.876116  0.875830  0.999186  0  .  1
   O  O52  1  0.718507  0.998023  0.417222  0  .  1
   O  O53  1  0.466935  0.748264  0.416779  0  .  1
   O  O54  1  0.217934  0.497651  0.416228  0  .  1
   O  O55  1  0.278393  0.665561  0.608576  0  .  1
   O  O56  1  0.029001  0.417198  0.608055  0  .  1
   O  O57  1  0.529109  0.914905  0.607888  0  .  1
   O  O58  1  0.121291  0.773761  0.000032  0  .  1
   O  O59  1  0.417153  0.238611  0.203270  0  .  1
   O  O60  1  0.912237  0.744512  0.199472  0  .  1
   O  O61  1  0.661581  0.497706  0.200637  0  .  1
   O  O62  1  0.022125  0.098683  0.595554  0  .  1
   O  O63  1  0.771180  0.849949  0.595892  0  .  1
   O  O64  1  0.271744  0.348712  0.593405  0  .  1
   O  O65  1  0.520238  0.600536  0.596155  0  .  1
   O  O66  1  0.227152  0.151949  0.405607  0  .  1
   O  O67  1  0.478308  0.401593  0.405625  0  .  1
   O  O68  1  0.979063  0.900390  0.403829  0  .  1
   O  O69  1  0.728695  0.651024  0.405077  0  .  1
   O  O70  1  0.335514  0.502951  0.801144  0  .  1
   O  O71  1  0.088300  0.253950  0.800047  0  .  1
   O  O72  1  0.586947  0.754595  0.799588  0  .  1
   O  O73  1  0.878873  0.223857  0.999611  0  .  1
   O  O74  1  0.474020  0.080903  0.388659  0  .  1
   O  O75  1  0.720786  0.335565  0.392199  0  .  1
   O  O76  1  0.970202  0.584958  0.392303  0  .  1
   O  O77  1  0.282596  0.002917  0.580964  0  .  1
   O  O78  1  0.531939  0.252526  0.580848  0  .  1
   O  O79  1  0.782170  0.501976  0.583066  0  .  1
   O  O80  1  0.682289  0.123752  0.201014  0  .  1
   O  O81  1  0.935437  0.374352  0.199439  0  .  1
   O  O82  1  0.564265  0.127133  0.800256  0  .  1
   O  O83  1  0.815578  0.376204  0.799622  0  .  1
   O  O84  1  0.968778  0.246720  0.416481  0  .  1
   O  O85  1  0.779105  0.165653  0.607446  0  .  1
   O  O86  1  0.880002  0.544629  0.000699  0  .  1
   O  O87  1  0.634068  0.282963  0.999886  0  .  1
   O  O88  1  0.390369  0.023554  0.999289  0  .  1
   O  O89  1  0.838388  0.006545  0.800460  0  .  1
 
