#\#CIF1.1
##########################################################################
#               Crystallographic Information Format file 
#               Produced by PyCifRW module
# 
#  This is a CIF file.  CIF has been adopted by the International
#  Union of Crystallography as the standard for data archiving and 
#  transmission.
#
#  For information on this file format, follow the CIF links at
#  http://www.iucr.org
##########################################################################

data_Li14Co2S9
_symmetry_space_group_name_H-M          'P 1'
_cell_length_a                          6.98562148015
_cell_length_b                          6.98557081548
_cell_length_c                          9.80189222003
_cell_angle_alpha                       90.000197994
_cell_angle_beta                        89.9997752183
_cell_angle_gamma                       120.000958088
_chemical_name_systematic               'Generated by pymatgen'
_symmetry_Int_Tables_number             1
_chemical_formula_structural            Li14Co2S9
_chemical_formula_sum                   'Li14 Co2 S9'
_cell_volume                            414.231680403
_cell_formula_units_Z                   1
loop_
  _symmetry_equiv_pos_site_id
  _symmetry_equiv_pos_as_xyz
   1  'x, y, z'
 
loop_
  _atom_site_type_symbol
  _atom_site_label
  _atom_site_symmetry_multiplicity
  _atom_site_fract_x
  _atom_site_fract_y
  _atom_site_fract_z
  _atom_site_attached_hydrogens
  _atom_site_B_iso_or_equiv
  _atom_site_occupancy
   Li  Li1  1  0.019001  0.672394  0.909956  0  .  1
   Li  Li2  1  0.324336  0.958218  0.591512  0  .  1
   Li  Li3  1  0.041755  0.366129  0.591513  0  .  1
   Li  Li4  1  0.999994  0.000010  0.250309  0  .  1
   Li  Li5  1  0.999976  0.999991  0.749688  0  .  1
   Li  Li6  1  0.327601  0.346597  0.909954  0  .  1
   Li  Li7  1  0.653385  0.980999  0.909957  0  .  1
   Li  Li8  1  0.366117  0.324365  0.408491  0  .  1
   Li  Li9  1  0.633852  0.675641  0.591512  0  .  1
   Li  Li10  1  0.346610  0.019007  0.090045  0  .  1
   Li  Li11  1  0.672389  0.653383  0.090042  0  .  1
   Li  Li12  1  0.958224  0.633876  0.408489  0  .  1
   Li  Li13  1  0.675634  0.041778  0.408492  0  .  1
   Li  Li14  1  0.981002  0.327618  0.090049  0  .  1
   Co  Co15  1  0.333339  0.666677  0.255798  0  .  1
   Co  Co16  1  0.666648  0.333325  0.744195  0  .  1
   S  S17  1  0.308414  0.963479  0.337588  0  .  1
   S  S18  1  0.036531  0.344962  0.337594  0  .  1
   S  S19  1  0.333339  0.666659  0.020899  0  .  1
   S  S20  1  -0.000001  -0.000003  0.000000  0  .  1
   S  S21  1  0.344926  0.308413  0.662409  0  .  1
   S  S22  1  0.655049  0.691591  0.337593  0  .  1
   S  S23  1  0.666677  0.333329  0.979095  0  .  1
   S  S24  1  0.963443  0.655039  0.662409  0  .  1
   S  S25  1  0.691559  0.036525  0.662411  0  .  1
 
