#\#CIF1.1
##########################################################################
#               Crystallographic Information Format file 
#               Produced by PyCifRW module
# 
#  This is a CIF file.  CIF has been adopted by the International
#  Union of Crystallography as the standard for data archiving and 
#  transmission.
#
#  For information on this file format, follow the CIF links at
#  http://www.iucr.org
##########################################################################

data_Li15(NiO2)14
_symmetry_space_group_name_H-M          'P 1'
_cell_length_a                          5.20489420273
_cell_length_b                          5.20489398376
_cell_length_c                          71.4019086807
_cell_angle_alpha                       32.5111500573
_cell_angle_beta                        32.5111534269
_cell_angle_gamma                       32.7759615045
_chemical_name_systematic               'Generated by pymatgen'
_symmetry_Int_Tables_number             1
_chemical_formula_structural            Li15(NiO2)14
_chemical_formula_sum                   'Li15 Ni14 O28'
_cell_volume                            499.316652953
_cell_formula_units_Z                   1
loop_
  _symmetry_equiv_pos_site_id
  _symmetry_equiv_pos_as_xyz
   1  'x, y, z'
 
loop_
  _atom_site_type_symbol
  _atom_site_label
  _atom_site_symmetry_multiplicity
  _atom_site_fract_x
  _atom_site_fract_y
  _atom_site_fract_z
  _atom_site_attached_hydrogens
  _atom_site_B_iso_or_equiv
  _atom_site_occupancy
   Li  Li1  1  0.686297  0.686297  0.037802  0  .  1
   Li  Li2  1  0.351637  0.351637  0.099864  0  .  1
   Li  Li3  1  0.898084  0.898084  0.156435  0  .  1
   Li  Li4  1  0.969792  0.969792  0.218747  0  .  1
   Li  Li5  1  0.998679  0.998679  0.357353  0  .  1
   Li  Li6  1  0.991253  0.991253  0.287097  0  .  1
   Li  Li7  1  -0.001976  -0.001976  0.500302  0  .  1
   Li  Li8  1  0.000013  0.000013  0.428574  0  .  1
   Li  Li9  1  0.002149  0.002149  0.642522  0  .  1
   Li  Li10  1  -0.001215  -0.001215  0.571605  0  .  1
   Li  Li11  1  0.003315  0.003315  0.713789  0  .  1
   Li  Li12  1  0.007695  0.007695  0.784600  0  .  1
   Li  Li13  1  0.023609  0.023609  0.853674  0  .  1
   Li  Li14  1  0.610820  0.610820  0.977940  0  .  1
   Li  Li15  1  0.077405  0.077405  0.918658  0  .  1
   Ni  Ni16  1  0.484981  0.484981  0.034168  0  .  1
   Ni  Ni17  1  0.512201  0.512201  0.108815  0  .  1
   Ni  Ni18  1  0.484563  0.484563  0.181609  0  .  1
   Ni  Ni19  1  0.487457  0.487457  0.252073  0  .  1
   Ni  Ni20  1  0.495470  0.495470  0.322121  0  .  1
   Ni  Ni21  1  0.498980  0.498980  0.392959  0  .  1
   Ni  Ni22  1  0.499533  0.499533  0.464319  0  .  1
   Ni  Ni23  1  0.499842  0.499842  0.535748  0  .  1
   Ni  Ni24  1  0.500419  0.500419  0.607077  0  .  1
   Ni  Ni25  1  0.501606  0.501606  0.678321  0  .  1
   Ni  Ni26  1  0.504168  0.504168  0.749397  0  .  1
   Ni  Ni27  1  0.509275  0.509275  0.820130  0  .  1
   Ni  Ni28  1  0.514533  0.514533  0.890842  0  .  1
   Ni  Ni29  1  0.505235  0.505235  0.960860  0  .  1
   O  O30  1  0.250248  0.250248  0.012730  0  .  1
   O  O31  1  0.253713  0.253713  0.087754  0  .  1
   O  O32  1  0.741068  0.741068  0.056074  0  .  1
   O  O33  1  0.215994  0.215994  0.165397  0  .  1
   O  O34  1  0.736317  0.736317  0.130300  0  .  1
   O  O35  1  0.231010  0.231010  0.233256  0  .  1
   O  O36  1  0.733151  0.733151  0.201373  0  .  1
   O  O37  1  0.243551  0.243551  0.302661  0  .  1
   O  O38  1  0.738841  0.738841  0.271390  0  .  1
   O  O39  1  0.249344  0.249344  0.373163  0  .  1
   O  O40  1  0.745527  0.745527  0.341895  0  .  1
   O  O41  1  0.251635  0.251635  0.444196  0  .  1
   O  O42  1  0.748964  0.748964  0.412752  0  .  1
   O  O43  1  0.249967  0.249967  0.515937  0  .  1
   O  O44  1  0.748080  0.748080  0.484353  0  .  1
   O  O45  1  0.250822  0.250822  0.587231  0  .  1
   O  O46  1  0.749604  0.749604  0.555568  0  .  1
   O  O47  1  0.251337  0.251337  0.658588  0  .  1
   O  O48  1  0.750111  0.750111  0.626885  0  .  1
   O  O49  1  0.253188  0.253188  0.729736  0  .  1
   O  O50  1  0.751042  0.751042  0.698164  0  .  1
   O  O51  1  0.258738  0.258738  0.800468  0  .  1
   O  O52  1  0.754525  0.754525  0.769096  0  .  1
   O  O53  1  0.263833  0.263833  0.871203  0  .  1
   O  O54  1  0.762358  0.762358  0.839475  0  .  1
   O  O55  1  0.252661  0.252661  0.943428  0  .  1
   O  O56  1  0.775147  0.775147  0.908402  0  .  1
   O  O57  1  0.798404  0.798404  0.975771  0  .  1
 
