#\#CIF1.1
##########################################################################
#               Crystallographic Information Format file 
#               Produced by PyCifRW module
# 
#  This is a CIF file.  CIF has been adopted by the International
#  Union of Crystallography as the standard for data archiving and 
#  transmission.
#
#  For information on this file format, follow the CIF links at
#  http://www.iucr.org
##########################################################################

data_Li17(Co4O9)2
_symmetry_space_group_name_H-M          'P 1'
_cell_length_a                          9.58329019446
_cell_length_b                          7.75932879459
_cell_length_c                          7.61054165131
_cell_angle_alpha                       61.1464843639
_cell_angle_beta                        103.21708868
_cell_angle_gamma                       87.7028248865
_chemical_name_systematic               'Generated by pymatgen'
_symmetry_Int_Tables_number             1
_chemical_formula_structural            Li17(Co4O9)2
_chemical_formula_sum                   'Li17 Co8 O18'
_cell_volume                            474.966240646
_cell_formula_units_Z                   1
loop_
  _symmetry_equiv_pos_site_id
  _symmetry_equiv_pos_as_xyz
   1  'x, y, z'
 
loop_
  _atom_site_type_symbol
  _atom_site_label
  _atom_site_symmetry_multiplicity
  _atom_site_fract_x
  _atom_site_fract_y
  _atom_site_fract_z
  _atom_site_attached_hydrogens
  _atom_site_B_iso_or_equiv
  _atom_site_occupancy
   Li  Li1  1  0.131866  0.144821  0.810688  0  .  1
   Li  Li2  1  0.105678  0.621142  0.472485  0  .  1
   Li  Li3  1  0.124595  0.920961  0.635977  0  .  1
   Li  Li4  1  0.149450  0.349857  0.404455  0  .  1
   Li  Li5  1  0.336240  0.856991  0.951875  0  .  1
   Li  Li6  1  0.402231  0.624092  0.835760  0  .  1
   Li  Li7  1  0.376627  0.074124  0.496495  0  .  1
   Li  Li8  1  0.359686  0.462923  0.236547  0  .  1
   Li  Li9  1  0.629413  0.550661  0.758047  0  .  1
   Li  Li10  1  0.621020  0.927905  0.498468  0  .  1
   Li  Li11  1  0.597989  0.373123  0.157914  0  .  1
   Li  Li12  1  0.658055  0.132117  0.051684  0  .  1
   Li  Li13  1  0.858190  0.292310  0.875660  0  .  1
   Li  Li14  1  0.849307  0.665820  0.586849  0  .  1
   Li  Li15  1  0.880447  0.087899  0.354077  0  .  1
   Li  Li16  1  0.894402  0.382273  0.516990  0  .  1
   Li  Li17  1  0.871544  0.847070  0.192144  0  .  1
   Co  Co18  1  0.117556  0.479421  0.936689  0  .  1
   Co  Co19  1  0.146172  0.041564  0.232479  0  .  1
   Co  Co20  1  0.391004  0.296070  0.717131  0  .  1
   Co  Co21  1  0.365293  0.766500  0.370822  0  .  1
   Co  Co22  1  0.632891  0.231717  0.628150  0  .  1
   Co  Co23  1  0.610651  0.693464  0.290869  0  .  1
   Co  Co24  1  0.857921  0.957611  0.762275  0  .  1
   Co  Co25  1  0.878835  0.530907  0.069122  0  .  1
   O  O26  1  0.022524  0.412438  0.752264  0  .  1
   O  O27  1  0.031033  0.895031  0.383092  0  .  1
   O  O28  1  0.219917  0.673276  0.888983  0  .  1
   O  O29  1  0.289631  0.112543  0.687235  0  .  1
   O  O30  1  0.205298  0.270590  0.225698  0  .  1
   O  O31  1  0.290463  0.523323  0.442446  0  .  1
   O  O32  1  0.252463  0.953361  0.103124  0  .  1
   O  O33  1  0.493825  0.356596  0.898638  0  .  1
   O  O34  1  0.460204  0.795523  0.580531  0  .  1
   O  O35  1  0.540389  0.203681  0.418728  0  .  1
   O  O36  1  0.507759  0.637586  0.105948  0  .  1
   O  O37  1  0.763513  0.061057  0.896427  0  .  1
   O  O38  1  0.712626  0.469321  0.576977  0  .  1
   O  O39  1  0.791925  0.731684  0.776060  0  .  1
   O  O40  1  0.710088  0.881929  0.313558  0  .  1
   O  O41  1  0.787352  0.324967  0.085127  0  .  1
   O  O42  1  0.969476  0.108308  0.609597  0  .  1
   O  O43  1  0.961227  0.566475  0.280495  0  .  1
 
