#\#CIF1.1
##########################################################################
#               Crystallographic Information Format file 
#               Produced by PyCifRW module
# 
#  This is a CIF file.  CIF has been adopted by the International
#  Union of Crystallography as the standard for data archiving and 
#  transmission.
#
#  For information on this file format, follow the CIF links at
#  http://www.iucr.org
##########################################################################

data_Li17Ni11O28
_symmetry_space_group_name_H-M          'P 1'
_cell_length_a                          6.43919551877
_cell_length_b                          7.59454165517
_cell_length_c                          10.248934308
_cell_angle_alpha                       67.8868372853
_cell_angle_beta                        86.8165236499
_cell_angle_gamma                       89.544619677
_chemical_name_systematic               'Generated by pymatgen'
_symmetry_Int_Tables_number             1
_chemical_formula_structural            Li17Ni11O28
_chemical_formula_sum                   'Li17 Ni11 O28'
_cell_volume                            463.571668162
_cell_formula_units_Z                   1
loop_
  _symmetry_equiv_pos_site_id
  _symmetry_equiv_pos_as_xyz
   1  'x, y, z'
 
loop_
  _atom_site_type_symbol
  _atom_site_label
  _atom_site_symmetry_multiplicity
  _atom_site_fract_x
  _atom_site_fract_y
  _atom_site_fract_z
  _atom_site_attached_hydrogens
  _atom_site_B_iso_or_equiv
  _atom_site_occupancy
   Li  Li1  1  0.596344  0.891712  0.932088  0  .  1
   Li  Li2  1  0.823564  0.677486  0.784143  0  .  1
   Li  Li3  1  0.117942  0.394002  0.925055  0  .  1
   Li  Li4  1  0.325334  0.185126  0.782187  0  .  1
   Li  Li5  1  0.538354  0.962867  0.638203  0  .  1
   Li  Li6  1  0.429329  0.569877  0.713267  0  .  1
   Li  Li7  1  0.033863  0.462030  0.642894  0  .  1
   Li  Li8  1  0.745821  0.755685  0.503124  0  .  1
   Li  Li9  1  0.254196  0.253975  0.497351  0  .  1
   Li  Li10  1  0.968465  0.530030  0.354019  0  .  1
   Li  Li11  1  0.857143  0.142857  0.428571  0  .  1
   Li  Li12  1  0.460090  0.031739  0.359792  0  .  1
   Li  Li13  1  0.680422  0.823685  0.214249  0  .  1
   Li  Li14  1  0.890722  0.608228  0.073000  0  .  1
   Li  Li15  1  0.284957  0.715837  0.143876  0  .  1
   Li  Li16  1  0.175931  0.322848  0.218940  0  .  1
   Li  Li17  1  0.388952  0.100588  0.074955  0  .  1
   Ni  Ni18  1  0.216152  0.783044  0.854497  0  .  1
   Ni  Ni19  1  0.710689  0.286237  0.856198  0  .  1
   Ni  Ni20  1  0.925963  0.068418  0.712178  0  .  1
   Ni  Ni21  1  0.142247  0.854915  0.570906  0  .  1
   Ni  Ni22  1  0.642584  0.354899  0.570522  0  .  1
   Ni  Ni23  1  0.357143  0.642857  0.428571  0  .  1
   Ni  Ni24  1  0.071702  0.930815  0.286621  0  .  1
   Ni  Ni25  1  0.572039  0.430799  0.286237  0  .  1
   Ni  Ni26  1  0.788323  0.217296  0.144965  0  .  1
   Ni  Ni27  1  0.498133  0.502670  0.002646  0  .  1
   Ni  Ni28  1  0.003596  0.999477  0.000945  0  .  1
   O  O29  1  0.932788  0.844214  0.880787  0  .  1
   O  O30  1  0.280978  0.940938  0.953141  0  .  1
   O  O31  1  0.781498  0.441501  0.976356  0  .  1
   O  O32  1  0.433308  0.344776  0.904002  0  .  1
   O  O33  1  0.500026  0.722644  0.837317  0  .  1
   O  O34  1  0.724920  0.493890  0.680135  0  .  1
   O  O35  1  0.620610  0.136953  0.737346  0  .  1
   O  O36  1  0.132146  0.643081  0.745841  0  .  1
   O  O37  1  0.997911  0.216165  0.825581  0  .  1
   O  O38  1  0.863171  0.912934  0.609423  0  .  1
   O  O39  1  0.230518  0.991287  0.678273  0  .  1
   O  O40  1  0.422300  0.797595  0.532920  0  .  1
   O  O41  1  0.926071  0.293658  0.548899  0  .  1
   O  O42  1  0.360236  0.417053  0.595763  0  .  1
   O  O43  1  0.662591  0.566597  0.395316  0  .  1
   O  O44  1  0.051695  0.719117  0.461827  0  .  1
   O  O45  1  0.560659  0.219125  0.459036  0  .  1
   O  O46  1  0.788215  0.992056  0.308244  0  .  1
   O  O47  1  0.851115  0.372780  0.247720  0  .  1
   O  O48  1  0.153627  0.066590  0.398107  0  .  1
   O  O49  1  0.989366  0.791825  0.177008  0  .  1
   O  O50  1  0.354050  0.868662  0.261380  0  .  1
   O  O51  1  0.291985  0.488119  0.324223  0  .  1
   O  O52  1  0.483767  0.294428  0.178870  0  .  1
   O  O53  1  0.582139  0.642633  0.111302  0  .  1
   O  O54  1  0.093676  0.148762  0.119797  0  .  1
   O  O55  1  0.716375  0.069549  0.031561  0  .  1
   O  O56  1  0.214260  0.563070  0.019825  0  .  1
 
