#\#CIF1.1
##########################################################################
#               Crystallographic Information Format file 
#               Produced by PyCifRW module
# 
#  This is a CIF file.  CIF has been adopted by the International
#  Union of Crystallography as the standard for data archiving and 
#  transmission.
#
#  For information on this file format, follow the CIF links at
#  http://www.iucr.org
##########################################################################

data_Li2(FeO2)3
_symmetry_space_group_name_H-M          'P 1'
_cell_length_a                          5.13666961724
_cell_length_b                          4.98791834657
_cell_length_c                          4.96688620128
_cell_angle_alpha                       60.1393907956
_cell_angle_beta                        71.7493805607
_cell_angle_gamma                       81.029447598
_chemical_name_systematic               'Generated by pymatgen'
_symmetry_Int_Tables_number             1
_chemical_formula_structural            Li2(FeO2)3
_chemical_formula_sum                   'Li2 Fe3 O6'
_cell_volume                            104.811417817
_cell_formula_units_Z                   1
loop_
  _symmetry_equiv_pos_site_id
  _symmetry_equiv_pos_as_xyz
   1  'x, y, z'
 
loop_
  _atom_site_type_symbol
  _atom_site_label
  _atom_site_symmetry_multiplicity
  _atom_site_fract_x
  _atom_site_fract_y
  _atom_site_fract_z
  _atom_site_attached_hydrogens
  _atom_site_B_iso_or_equiv
  _atom_site_occupancy
   Li  Li1  1  0.000000  0.664482  0.667760  0  .  1
   Li  Li2  1  1.000000  0.335518  0.332240  0  .  1
   Fe  Fe3  1  0.500000  0.330487  0.834756  0  .  1
   Fe  Fe4  1  0.500000  0.000000  0.500000  0  .  1
   Fe  Fe5  1  0.500000  0.669513  0.165244  0  .  1
   O  O6  1  0.711858  0.000000  0.748293  0  .  1
   O  O7  1  0.710145  0.661614  0.440588  0  .  1
   O  O8  1  0.710145  0.338386  0.102202  0  .  1
   O  O9  1  0.289855  0.661614  0.897798  0  .  1
   O  O10  1  0.289855  0.338386  0.559412  0  .  1
   O  O11  1  0.288142  1.000000  0.251707  0  .  1
 
