#\#CIF1.1
##########################################################################
#               Crystallographic Information Format file 
#               Produced by PyCifRW module
# 
#  This is a CIF file.  CIF has been adopted by the International
#  Union of Crystallography as the standard for data archiving and 
#  transmission.
#
#  For information on this file format, follow the CIF links at
#  http://www.iucr.org
##########################################################################

data_Li2CrS3
_symmetry_space_group_name_H-M          'P 1'
_cell_length_a                          6.10232876722
_cell_length_b                          6.10232876722
_cell_length_c                          6.27679153381
_cell_angle_alpha                       80.5614541079
_cell_angle_beta                        99.4385458921
_cell_angle_gamma                       59.8923431431
_chemical_name_systematic               'Generated by pymatgen'
_symmetry_Int_Tables_number             1
_chemical_formula_structural            Li2CrS3
_chemical_formula_sum                   'Li4 Cr2 S6'
_cell_volume                            190.980459463
_cell_formula_units_Z                   2
loop_
  _symmetry_equiv_pos_site_id
  _symmetry_equiv_pos_as_xyz
   1  'x, y, z'
 
loop_
  _atom_site_type_symbol
  _atom_site_label
  _atom_site_symmetry_multiplicity
  _atom_site_fract_x
  _atom_site_fract_y
  _atom_site_fract_z
  _atom_site_attached_hydrogens
  _atom_site_B_iso_or_equiv
  _atom_site_occupancy
   Li  Li1  1  0.840179  0.840179  0.500000  0  .  1
   Li  Li2  1  0.159821  0.159821  0.500000  0  .  1
   Li  Li3  1  0.500000  0.500000  0.500000  0  .  1
   Li  Li4  1  0.000000  0.000000  0.000000  0  .  1
   Cr  Cr5  1  0.332779  0.332779  0.000000  0  .  1
   Cr  Cr6  1  0.667221  0.667221  0.000000  0  .  1
   S  S7  1  0.283594  0.716406  0.771216  0  .  1
   S  S8  1  0.436750  0.923690  0.227202  0  .  1
   S  S9  1  0.076310  0.563250  0.227202  0  .  1
   S  S10  1  0.563250  0.076310  0.772798  0  .  1
   S  S11  1  0.923690  0.436750  0.772798  0  .  1
   S  S12  1  0.716406  0.283594  0.228784  0  .  1
 
