#\#CIF1.1
##########################################################################
#               Crystallographic Information Format file 
#               Produced by PyCifRW module
# 
#  This is a CIF file.  CIF has been adopted by the International
#  Union of Crystallography as the standard for data archiving and 
#  transmission.
#
#  For information on this file format, follow the CIF links at
#  http://www.iucr.org
##########################################################################

data_Li2Cr3O6
_symmetry_space_group_name_H-M          'P 1'
_cell_length_a                          5.13248951606
_cell_length_b                          5.13804787128
_cell_length_c                          10.10035515
_cell_angle_alpha                       90.0
_cell_angle_beta                        90.0
_cell_angle_gamma                       59.9641777012
_chemical_name_systematic               'Generated by pymatgen'
_symmetry_Int_Tables_number             1
_chemical_formula_structural            Li2Cr3O6
_chemical_formula_sum                   'Li4 Cr6 O12'
_cell_volume                            230.587952764
_cell_formula_units_Z                   2
loop_
  _symmetry_equiv_pos_site_id
  _symmetry_equiv_pos_as_xyz
   1  'x, y, z'
 
loop_
  _atom_site_type_symbol
  _atom_site_label
  _atom_site_symmetry_multiplicity
  _atom_site_fract_x
  _atom_site_fract_y
  _atom_site_fract_z
  _atom_site_attached_hydrogens
  _atom_site_B_iso_or_equiv
  _atom_site_occupancy
   Li  Li1  1  0.500000  0.158135  0.750000  0  .  1
   Li  Li2  1  0.500000  0.341865  0.250000  0  .  1
   Li  Li3  1  0.500000  0.658135  0.750000  0  .  1
   Li  Li4  1  0.500000  0.841865  0.250000  0  .  1
   Cr  Cr5  1  0.000000  0.000000  0.000000  0  .  1
   Cr  Cr6  1  0.000000  0.500000  0.500000  0  .  1
   Cr  Cr7  1  0.330533  0.334734  0.000000  0  .  1
   Cr  Cr8  1  0.330533  0.834734  0.500000  0  .  1
   Cr  Cr9  1  0.669467  0.165266  0.500000  0  .  1
   Cr  Cr10  1  0.669467  0.665266  0.000000  0  .  1
   O  O11  1  1.000000  0.169500  0.594233  0  .  1
   O  O12  1  0.000000  0.330500  0.094233  0  .  1
   O  O13  1  1.000000  0.669500  0.905767  0  .  1
   O  O14  1  0.343029  0.993302  0.893321  0  .  1
   O  O15  1  0.000000  0.830500  0.405767  0  .  1
   O  O16  1  0.343029  0.163669  0.393321  0  .  1
   O  O17  1  0.343029  0.493302  0.606679  0  .  1
   O  O18  1  0.343029  0.663669  0.106679  0  .  1
   O  O19  1  0.656971  0.006698  0.106679  0  .  1
   O  O20  1  0.656971  0.336331  0.893321  0  .  1
   O  O21  1  0.656971  0.506698  0.393321  0  .  1
   O  O22  1  0.656971  0.836331  0.606679  0  .  1
 
