#\#CIF1.1
##########################################################################
#               Crystallographic Information Format file 
#               Produced by PyCifRW module
# 
#  This is a CIF file.  CIF has been adopted by the International
#  Union of Crystallography as the standard for data archiving and 
#  transmission.
#
#  For information on this file format, follow the CIF links at
#  http://www.iucr.org
##########################################################################

data_Li2CrS4
_symmetry_space_group_name_H-M          'P 1'
_cell_length_a                          6.78245958521
_cell_length_b                          6.81927788004
_cell_length_c                          12.3085527638
_cell_angle_alpha                       98.8274720588
_cell_angle_beta                        154.248540483
_cell_angle_gamma                       103.671650828
_chemical_name_systematic               'Generated by pymatgen'
_symmetry_Int_Tables_number             1
_chemical_formula_structural            Li2CrS4
_chemical_formula_sum                   'Li2 Cr1 S4'
_cell_volume                            119.428166472
_cell_formula_units_Z                   1
loop_
  _symmetry_equiv_pos_site_id
  _symmetry_equiv_pos_as_xyz
   1  'x, y, z'
 
loop_
  _atom_site_type_symbol
  _atom_site_label
  _atom_site_symmetry_multiplicity
  _atom_site_fract_x
  _atom_site_fract_y
  _atom_site_fract_z
  _atom_site_attached_hydrogens
  _atom_site_B_iso_or_equiv
  _atom_site_occupancy
   Li  Li1  1  0.325737  0.913608  0.822672  0  .  1
   Li  Li2  1  0.367136  0.490850  0.926766  0  .  1
   Cr  Cr3  1  0.846087  0.201184  0.374458  0  .  1
   S  S4  1  0.966172  0.834903  0.069152  0  .  1
   S  S5  1  0.741884  0.266598  0.885508  0  .  1
   S  S6  1  0.951334  0.136179  0.863897  0  .  1
   S  S7  1  0.725897  0.567564  0.679724  0  .  1
 
