#\#CIF1.1
##########################################################################
#               Crystallographic Information Format file 
#               Produced by PyCifRW module
# 
#  This is a CIF file.  CIF has been adopted by the International
#  Union of Crystallography as the standard for data archiving and 
#  transmission.
#
#  For information on this file format, follow the CIF links at
#  http://www.iucr.org
##########################################################################

data_Li2Fe3O10
_symmetry_space_group_name_H-M          'P 1'
_cell_length_a                          4.92595479281
_cell_length_b                          5.07782868116
_cell_length_c                          7.77747856215
_cell_angle_alpha                       98.1022955732
_cell_angle_beta                        104.155069422
_cell_angle_gamma                       104.882242871
_chemical_name_systematic               'Generated by pymatgen'
_symmetry_Int_Tables_number             1
_chemical_formula_structural            Li2Fe3O10
_chemical_formula_sum                   'Li2 Fe3 O10'
_cell_volume                            177.943858569
_cell_formula_units_Z                   1
loop_
  _symmetry_equiv_pos_site_id
  _symmetry_equiv_pos_as_xyz
   1  'x, y, z'
 
loop_
  _atom_site_type_symbol
  _atom_site_label
  _atom_site_symmetry_multiplicity
  _atom_site_fract_x
  _atom_site_fract_y
  _atom_site_fract_z
  _atom_site_attached_hydrogens
  _atom_site_B_iso_or_equiv
  _atom_site_occupancy
   Li  Li1  1  0.322721  0.757730  0.404525  0  .  1
   Li  Li2  1  0.677279  0.242270  0.595475  0  .  1
   Fe  Fe3  1  0.000000  0.500000  0.000000  0  .  1
   Fe  Fe4  1  0.677535  0.878916  0.880838  0  .  1
   Fe  Fe5  1  0.322465  0.121084  0.119162  0  .  1
   O  O6  1  0.056312  0.164066  0.891703  0  .  1
   O  O7  1  0.336371  0.761974  0.981390  0  .  1
   O  O8  1  0.059532  0.127315  0.523304  0  .  1
   O  O9  1  0.497971  0.899872  0.665729  0  .  1
   O  O10  1  0.240931  0.450517  0.208110  0  .  1
   O  O11  1  0.759069  0.549483  0.791890  0  .  1
   O  O12  1  0.502029  0.100128  0.334271  0  .  1
   O  O13  1  0.940468  0.872685  0.476696  0  .  1
   O  O14  1  0.663629  0.238026  0.018610  0  .  1
   O  O15  1  0.943688  0.835934  0.108297  0  .  1
 
