#\#CIF1.1
##########################################################################
#               Crystallographic Information Format file 
#               Produced by PyCifRW module
# 
#  This is a CIF file.  CIF has been adopted by the International
#  Union of Crystallography as the standard for data archiving and 
#  transmission.
#
#  For information on this file format, follow the CIF links at
#  http://www.iucr.org
##########################################################################

data_Li2Mn4O9
_symmetry_space_group_name_H-M          'P 1'
_cell_length_a                          4.93900859
_cell_length_b                          4.93901745697
_cell_length_c                          13.58692736
_cell_angle_alpha                       90.0000360685
_cell_angle_beta                        90.0000218195
_cell_angle_gamma                       119.999874654
_chemical_name_systematic               'Generated by pymatgen'
_symmetry_Int_Tables_number             1
_chemical_formula_structural            Li2Mn4O9
_chemical_formula_sum                   'Li4 Mn8 O18'
_cell_volume                            287.033625415
_cell_formula_units_Z                   2
loop_
  _symmetry_equiv_pos_site_id
  _symmetry_equiv_pos_as_xyz
   1  'x, y, z'
 
loop_
  _atom_site_type_symbol
  _atom_site_label
  _atom_site_symmetry_multiplicity
  _atom_site_fract_x
  _atom_site_fract_y
  _atom_site_fract_z
  _atom_site_attached_hydrogens
  _atom_site_B_iso_or_equiv
  _atom_site_occupancy
   Li  Li1  1  0.999983  0.999990  0.148209  0  .  1
   Li  Li2  1  0.999987  0.999998  0.351750  0  .  1
   Li  Li3  1  0.000001  0.000002  0.648216  0  .  1
   Li  Li4  1  0.000002  0.000021  0.851729  0  .  1
   Mn  Mn5  1  0.333329  0.666667  0.014666  0  .  1
   Mn  Mn6  1  0.333325  0.666662  0.315456  0  .  1
   Mn  Mn7  1  0.333336  0.666676  0.815455  0  .  1
   Mn  Mn8  1  0.333323  0.666662  0.514676  0  .  1
   Mn  Mn9  1  0.666653  0.333324  0.184558  0  .  1
   Mn  Mn10  1  0.666667  0.333342  0.684561  0  .  1
   Mn  Mn11  1  0.666661  0.333331  0.485336  0  .  1
   Mn  Mn12  1  0.666660  0.333333  0.985341  0  .  1
   O  O13  1  0.999986  0.668837  0.750004  0  .  1
   O  O14  1  0.031055  0.656578  0.420179  0  .  1
   O  O15  1  0.343411  0.968945  0.920178  0  .  1
   O  O16  1  0.031053  0.374482  0.920177  0  .  1
   O  O17  1  0.999976  0.331150  0.250002  0  .  1
   O  O18  1  0.331156  0.331159  0.750002  0  .  1
   O  O19  1  0.343415  0.374484  0.420179  0  .  1
   O  O20  1  0.625508  0.968936  0.420179  0  .  1
   O  O21  1  0.374487  0.343442  0.079828  0  .  1
   O  O22  1  0.331160  0.000004  0.249998  0  .  1
   O  O23  1  0.625519  0.656583  0.920178  0  .  1
   O  O24  1  0.374489  0.031057  0.579829  0  .  1
   O  O25  1  0.656554  0.625504  0.579830  0  .  1
   O  O26  1  0.668834  0.668827  0.249999  0  .  1
   O  O27  1  0.968939  0.625504  0.079828  0  .  1
   O  O28  1  0.656556  0.031054  0.079826  0  .  1
   O  O29  1  0.668838  0.000008  0.750002  0  .  1
   O  O30  1  0.968936  0.343439  0.579829  0  .  1
 
