#\#CIF1.1
##########################################################################
#               Crystallographic Information Format file 
#               Produced by PyCifRW module
# 
#  This is a CIF file.  CIF has been adopted by the International
#  Union of Crystallography as the standard for data archiving and 
#  transmission.
#
#  For information on this file format, follow the CIF links at
#  http://www.iucr.org
##########################################################################

data_Li2Mn2O3
_symmetry_space_group_name_H-M          'P 1'
_cell_length_a                          6.27399698168
_cell_length_b                          5.48621873
_cell_length_c                          5.43957417181
_cell_angle_alpha                       90.0
_cell_angle_beta                        118.454493694
_cell_angle_gamma                       90.0
_chemical_name_systematic               'Generated by pymatgen'
_symmetry_Int_Tables_number             1
_chemical_formula_structural            Li2Mn2O3
_chemical_formula_sum                   'Li4 Mn4 O6'
_cell_volume                            164.614443211
_cell_formula_units_Z                   2
loop_
  _symmetry_equiv_pos_site_id
  _symmetry_equiv_pos_as_xyz
   1  'x, y, z'
 
loop_
  _atom_site_type_symbol
  _atom_site_label
  _atom_site_symmetry_multiplicity
  _atom_site_fract_x
  _atom_site_fract_y
  _atom_site_fract_z
  _atom_site_attached_hydrogens
  _atom_site_B_iso_or_equiv
  _atom_site_occupancy
   Li  Li1  1  0.063062  0.654605  0.878888  0  .  1
   Li  Li2  1  0.063062  0.845395  0.378888  0  .  1
   Li  Li3  1  0.936938  0.154605  0.621112  0  .  1
   Li  Li4  1  0.936938  0.345395  0.121112  0  .  1
   Mn  Mn5  1  0.348539  0.403171  0.620316  0  .  1
   Mn  Mn6  1  0.651461  0.903171  0.879684  0  .  1
   Mn  Mn7  1  0.348539  0.096829  0.120316  0  .  1
   Mn  Mn8  1  0.651461  0.596829  0.379684  0  .  1
   O  O9  1  0.000000  0.500000  0.500000  0  .  1
   O  O10  1  0.000000  0.000000  0.000000  0  .  1
   O  O11  1  0.302865  0.037014  0.698102  0  .  1
   O  O12  1  0.697135  0.537014  0.801898  0  .  1
   O  O13  1  0.302865  0.462986  0.198102  0  .  1
   O  O14  1  0.697135  0.962986  0.301898  0  .  1
 
