#\#CIF1.1
##########################################################################
#               Crystallographic Information Format file 
#               Produced by PyCifRW module
# 
#  This is a CIF file.  CIF has been adopted by the International
#  Union of Crystallography as the standard for data archiving and 
#  transmission.
#
#  For information on this file format, follow the CIF links at
#  http://www.iucr.org
##########################################################################

data_Li2Mn5O12
_symmetry_space_group_name_H-M          'P 1'
_cell_length_a                          5.82600661379
_cell_length_b                          5.82600610416
_cell_length_c                          13.0652114155
_cell_angle_alpha                       77.0581131005
_cell_angle_beta                        77.0581140567
_cell_angle_gamma                       89.9817518201
_chemical_name_systematic               'Generated by pymatgen'
_symmetry_Int_Tables_number             1
_chemical_formula_structural            Li2Mn5O12
_chemical_formula_sum                   'Li4 Mn10 O24'
_cell_volume                            420.639856873
_cell_formula_units_Z                   2
loop_
  _symmetry_equiv_pos_site_id
  _symmetry_equiv_pos_as_xyz
   1  'x, y, z'
 
loop_
  _atom_site_type_symbol
  _atom_site_label
  _atom_site_symmetry_multiplicity
  _atom_site_fract_x
  _atom_site_fract_y
  _atom_site_fract_z
  _atom_site_attached_hydrogens
  _atom_site_B_iso_or_equiv
  _atom_site_occupancy
   Li  Li1  1  0.329811  0.341161  0.329811  0  .  1
   Li  Li2  1  0.091161  0.579811  0.829811  0  .  1
   Li  Li3  1  0.996270  -0.000073  0.003505  0  .  1
   Li  Li4  1  0.749927  0.246271  0.503505  0  .  1
   Mn  Mn5  1  0.045776  0.786485  0.419540  0  .  1
   Mn  Mn6  1  0.207865  0.957941  0.583879  0  .  1
   Mn  Mn7  1  0.374294  0.129632  0.747110  0  .  1
   Mn  Mn8  1  0.537499  0.786870  0.419238  0  .  1
   Mn  Mn9  1  0.707941  0.457865  0.083879  0  .  1
   Mn  Mn10  1  0.536485  0.295776  0.919540  0  .  1
   Mn  Mn11  1  0.536870  0.787499  0.919238  0  .  1
   Mn  Mn12  1  0.879627  0.126738  0.247505  0  .  1
   Mn  Mn13  1  0.879632  0.624294  0.247110  0  .  1
   Mn  Mn14  1  0.876738  0.129627  0.747505  0  .  1
   O  O15  1  0.076674  0.371073  0.258379  0  .  1
   O  O16  1  0.090290  0.870746  0.257980  0  .  1
   O  O17  1  0.121073  0.326674  0.758379  0  .  1
   O  O18  1  0.129568  0.901748  0.741066  0  .  1
   O  O19  1  0.287430  0.015701  0.425147  0  .  1
   O  O20  1  0.295517  0.587680  0.408546  0  .  1
   O  O21  1  0.488799  0.232863  0.068329  0  .  1
   O  O22  1  0.488152  0.697324  0.069231  0  .  1
   O  O23  1  0.438778  0.174412  0.597936  0  .  1
   O  O24  1  0.447324  0.738152  0.569231  0  .  1
   O  O25  1  0.321294  0.044718  0.911067  0  .  1
   O  O26  1  0.651748  0.379568  0.241066  0  .  1
   O  O27  1  0.651783  0.868907  0.262358  0  .  1
   O  O28  1  0.337680  0.545517  0.908546  0  .  1
   O  O29  1  0.925050  0.214915  0.097556  0  .  1
   O  O30  1  0.924412  0.688778  0.097936  0  .  1
   O  O31  1  0.620746  0.340290  0.757980  0  .  1
   O  O32  1  0.618907  0.901783  0.762358  0  .  1
   O  O33  1  0.796251  0.017699  0.407587  0  .  1
   O  O34  1  0.794718  0.571294  0.411067  0  .  1
   O  O35  1  0.767699  0.046251  0.907587  0  .  1
   O  O36  1  0.765701  0.537430  0.925147  0  .  1
   O  O37  1  0.964915  0.175050  0.597556  0  .  1
   O  O38  1  0.982863  0.738799  0.568329  0  .  1
 
