#\#CIF1.1
##########################################################################
#               Crystallographic Information Format file 
#               Produced by PyCifRW module
# 
#  This is a CIF file.  CIF has been adopted by the International
#  Union of Crystallography as the standard for data archiving and 
#  transmission.
#
#  For information on this file format, follow the CIF links at
#  http://www.iucr.org
##########################################################################

data_Li2Ti2S5
_symmetry_space_group_name_H-M          'P 1'
_cell_length_a                          6.12541727387
_cell_length_b                          6.12541727387
_cell_length_c                          11.9177195073
_cell_angle_alpha                       68.7510397306
_cell_angle_beta                        111.248960269
_cell_angle_gamma                       118.904890525
_chemical_name_systematic               'Generated by pymatgen'
_symmetry_Int_Tables_number             1
_chemical_formula_structural            Li2Ti2S5
_chemical_formula_sum                   'Li4 Ti4 S10'
_cell_volume                            355.105107997
_cell_formula_units_Z                   2
loop_
  _symmetry_equiv_pos_site_id
  _symmetry_equiv_pos_as_xyz
   1  'x, y, z'
 
loop_
  _atom_site_type_symbol
  _atom_site_label
  _atom_site_symmetry_multiplicity
  _atom_site_fract_x
  _atom_site_fract_y
  _atom_site_fract_z
  _atom_site_attached_hydrogens
  _atom_site_B_iso_or_equiv
  _atom_site_occupancy
   Li  Li1  1  0.175459  0.556148  0.675516  0  .  1
   Li  Li2  1  0.443852  0.824541  0.175516  0  .  1
   Li  Li3  1  0.556148  0.175459  0.824484  0  .  1
   Li  Li4  1  0.824541  0.443852  0.324484  0  .  1
   Ti  Ti5  1  0.750875  0.927362  0.557825  0  .  1
   Ti  Ti6  1  0.927362  0.750875  0.942175  0  .  1
   Ti  Ti7  1  0.072638  0.249125  0.057825  0  .  1
   Ti  Ti8  1  0.249125  0.072638  0.442175  0  .  1
   S  S9  1  0.285695  0.712180  0.960967  0  .  1
   S  S10  1  0.287820  0.714305  0.460967  0  .  1
   S  S11  1  0.020874  0.187453  0.862437  0  .  1
   S  S12  1  0.643908  0.643908  0.750000  0  .  1
   S  S13  1  0.187453  0.020874  0.637563  0  .  1
   S  S14  1  0.812547  0.979126  0.362437  0  .  1
   S  S15  1  0.356092  0.356092  0.250000  0  .  1
   S  S16  1  0.979126  0.812547  0.137563  0  .  1
   S  S17  1  0.712180  0.285695  0.539033  0  .  1
   S  S18  1  0.714305  0.287820  0.039033  0  .  1
 
