#\#CIF1.1
##########################################################################
#               Crystallographic Information Format file 
#               Produced by PyCifRW module
# 
#  This is a CIF file.  CIF has been adopted by the International
#  Union of Crystallography as the standard for data archiving and 
#  transmission.
#
#  For information on this file format, follow the CIF links at
#  http://www.iucr.org
##########################################################################

data_Li2Ti3O7
_symmetry_space_group_name_H-M          'P 1'
_cell_length_a                          7.84633240618
_cell_length_b                          3.79495763
_cell_length_c                          9.33044307114
_cell_angle_alpha                       90.0
_cell_angle_beta                        99.2577703631
_cell_angle_gamma                       90.0
_chemical_name_systematic               'Generated by pymatgen'
_symmetry_Int_Tables_number             1
_chemical_formula_structural            Li2Ti3O7
_chemical_formula_sum                   'Li4 Ti6 O14'
_cell_volume                            274.209097456
_cell_formula_units_Z                   2
loop_
  _symmetry_equiv_pos_site_id
  _symmetry_equiv_pos_as_xyz
   1  'x, y, z'
 
loop_
  _atom_site_type_symbol
  _atom_site_label
  _atom_site_symmetry_multiplicity
  _atom_site_fract_x
  _atom_site_fract_y
  _atom_site_fract_z
  _atom_site_attached_hydrogens
  _atom_site_B_iso_or_equiv
  _atom_site_occupancy
   Li  Li1  1  0.301787  0.750000  0.414845  0  .  1
   Li  Li2  1  0.509314  0.750000  0.856662  0  .  1
   Li  Li3  1  0.490686  0.250000  0.143338  0  .  1
   Li  Li4  1  0.698213  0.250000  0.585155  0  .  1
   Ti  Ti5  1  0.157375  0.250000  0.975785  0  .  1
   Ti  Ti6  1  0.043695  0.250000  0.278083  0  .  1
   Ti  Ti7  1  0.274679  0.250000  0.668962  0  .  1
   Ti  Ti8  1  0.725321  0.750000  0.331038  0  .  1
   Ti  Ti9  1  0.956305  0.750000  0.721917  0  .  1
   Ti  Ti10  1  0.842625  0.750000  0.024215  0  .  1
   O  O11  1  0.090548  0.750000  0.948214  0  .  1
   O  O12  1  0.992373  0.750000  0.249806  0  .  1
   O  O13  1  0.180963  0.250000  0.452406  0  .  1
   O  O14  1  0.208434  0.750000  0.674024  0  .  1
   O  O15  1  0.356403  0.250000  0.899103  0  .  1
   O  O16  1  0.239820  0.250000  0.170569  0  .  1
   O  O17  1  0.489026  0.250000  0.652761  0  .  1
   O  O18  1  0.510974  0.750000  0.347239  0  .  1
   O  O19  1  0.760180  0.750000  0.829431  0  .  1
   O  O20  1  0.643597  0.750000  0.100897  0  .  1
   O  O21  1  0.791566  0.250000  0.325976  0  .  1
   O  O22  1  0.819037  0.750000  0.547594  0  .  1
   O  O23  1  0.007627  0.250000  0.750194  0  .  1
   O  O24  1  0.909452  0.250000  0.051786  0  .  1
 
