#\#CIF1.1
##########################################################################
#               Crystallographic Information Format file 
#               Produced by PyCifRW module
# 
#  This is a CIF file.  CIF has been adopted by the International
#  Union of Crystallography as the standard for data archiving and 
#  transmission.
#
#  For information on this file format, follow the CIF links at
#  http://www.iucr.org
##########################################################################

data_Li2V3O6
_symmetry_space_group_name_H-M          'P 1'
_cell_length_a                          5.21154831695
_cell_length_b                          5.11566571256
_cell_length_c                          5.17116201705
_cell_angle_alpha                       59.6404952364
_cell_angle_beta                        71.898831093
_cell_angle_gamma                       80.9652674512
_chemical_name_systematic               'Generated by pymatgen'
_symmetry_Int_Tables_number             1
_chemical_formula_structural            Li2V3O6
_chemical_formula_sum                   'Li2 V3 O6'
_cell_volume                            113.073128984
_cell_formula_units_Z                   1
loop_
  _symmetry_equiv_pos_site_id
  _symmetry_equiv_pos_as_xyz
   1  'x, y, z'
 
loop_
  _atom_site_type_symbol
  _atom_site_label
  _atom_site_symmetry_multiplicity
  _atom_site_fract_x
  _atom_site_fract_y
  _atom_site_fract_z
  _atom_site_attached_hydrogens
  _atom_site_B_iso_or_equiv
  _atom_site_occupancy
   Li  Li1  1  1.000000  0.336597  0.331702  0  .  1
   Li  Li2  1  0.000000  0.663403  0.668298  0  .  1
   V  V3  1  0.500000  0.681395  0.159303  0  .  1
   V  V4  1  0.500000  0.000000  0.500000  0  .  1
   V  V5  1  0.500000  0.318605  0.840697  0  .  1
   O  O6  1  0.274694  0.000000  0.246561  0  .  1
   O  O7  1  0.285219  0.346422  0.559663  0  .  1
   O  O8  1  0.285219  0.653578  0.906085  0  .  1
   O  O9  1  0.714781  0.346422  0.093915  0  .  1
   O  O10  1  0.714781  0.653578  0.440337  0  .  1
   O  O11  1  0.725306  1.000000  0.753439  0  .  1
 
