#\#CIF1.1
##########################################################################
#               Crystallographic Information Format file 
#               Produced by PyCifRW module
# 
#  This is a CIF file.  CIF has been adopted by the International
#  Union of Crystallography as the standard for data archiving and 
#  transmission.
#
#  For information on this file format, follow the CIF links at
#  http://www.iucr.org
##########################################################################

data_Li2V5O10
_symmetry_space_group_name_H-M          'P 1'
_cell_length_a                          5.15134472026
_cell_length_b                          5.1066232363
_cell_length_c                          8.18400145224
_cell_angle_alpha                       113.298225835
_cell_angle_beta                        96.1623093541
_cell_angle_gamma                       101.370352602
_chemical_name_systematic               'Generated by pymatgen'
_symmetry_Int_Tables_number             1
_chemical_formula_structural            Li2V5O10
_chemical_formula_sum                   'Li2 V5 O10'
_cell_volume                            189.702251658
_cell_formula_units_Z                   1
loop_
  _symmetry_equiv_pos_site_id
  _symmetry_equiv_pos_as_xyz
   1  'x, y, z'
 
loop_
  _atom_site_type_symbol
  _atom_site_label
  _atom_site_symmetry_multiplicity
  _atom_site_fract_x
  _atom_site_fract_y
  _atom_site_fract_z
  _atom_site_attached_hydrogens
  _atom_site_B_iso_or_equiv
  _atom_site_occupancy
   Li  Li1  1  0.225506  0.930239  0.406188  0  .  1
   Li  Li2  1  0.774494  0.069761  0.593812  0  .  1
   V  V3  1  0.123285  0.699022  0.685018  0  .  1
   V  V4  1  0.000000  0.500000  0.000000  0  .  1
   V  V5  1  0.687469  0.866460  0.898869  0  .  1
   V  V6  1  0.312531  0.133540  0.101131  0  .  1
   V  V7  1  0.876715  0.300978  0.314982  0  .  1
   O  O8  1  0.049798  0.080945  0.866520  0  .  1
   O  O9  1  0.081888  0.292310  0.513647  0  .  1
   O  O10  1  0.321558  0.718556  0.941576  0  .  1
   O  O11  1  0.194878  0.480428  0.222001  0  .  1
   O  O12  1  0.467082  0.869581  0.687019  0  .  1
   O  O13  1  0.532918  0.130419  0.312981  0  .  1
   O  O14  1  0.805122  0.519572  0.777999  0  .  1
   O  O15  1  0.678442  0.281444  0.058424  0  .  1
   O  O16  1  0.918112  0.707690  0.486353  0  .  1
   O  O17  1  0.950202  0.919055  0.133480  0  .  1
 
