#\#CIF1.1
##########################################################################
#               Crystallographic Information Format file 
#               Produced by PyCifRW module
# 
#  This is a CIF file.  CIF has been adopted by the International
#  Union of Crystallography as the standard for data archiving and 
#  transmission.
#
#  For information on this file format, follow the CIF links at
#  http://www.iucr.org
##########################################################################

data_Li2V5O12
_symmetry_space_group_name_H-M          'P 1'
_cell_length_a                          12.66710392
_cell_length_b                          9.20584352
_cell_length_c                          9.12142309
_cell_angle_alpha                       90.0
_cell_angle_beta                        90.0
_cell_angle_gamma                       90.0
_chemical_name_systematic               'Generated by pymatgen'
_symmetry_Int_Tables_number             1
_chemical_formula_structural            Li2V5O12
_chemical_formula_sum                   'Li8 V20 O48'
_cell_volume                            1063.66170252
_cell_formula_units_Z                   4
loop_
  _symmetry_equiv_pos_site_id
  _symmetry_equiv_pos_as_xyz
   1  'x, y, z'
 
loop_
  _atom_site_type_symbol
  _atom_site_label
  _atom_site_symmetry_multiplicity
  _atom_site_fract_x
  _atom_site_fract_y
  _atom_site_fract_z
  _atom_site_attached_hydrogens
  _atom_site_B_iso_or_equiv
  _atom_site_occupancy
   Li  Li1  1  0.188462  0.221775  0.271924  0  .  1
   Li  Li2  1  0.188462  0.778225  0.771924  0  .  1
   Li  Li3  1  0.311538  0.278225  0.771924  0  .  1
   Li  Li4  1  0.311538  0.721775  0.271924  0  .  1
   Li  Li5  1  0.688462  0.278225  0.728076  0  .  1
   Li  Li6  1  0.688462  0.721775  0.228076  0  .  1
   Li  Li7  1  0.811538  0.221775  0.228076  0  .  1
   Li  Li8  1  0.811538  0.778225  0.728076  0  .  1
   V  V9  1  0.000000  0.466758  0.250000  0  .  1
   V  V10  1  0.000000  0.533242  0.750000  0  .  1
   V  V11  1  0.120534  0.253293  0.968232  0  .  1
   V  V12  1  0.120534  0.746707  0.468232  0  .  1
   V  V13  1  0.379466  0.753293  0.968232  0  .  1
   V  V14  1  0.379466  0.246707  0.468232  0  .  1
   V  V15  1  0.500000  0.033242  0.750000  0  .  1
   V  V16  1  0.500000  0.966758  0.250000  0  .  1
   V  V17  1  0.620534  0.246707  0.031768  0  .  1
   V  V18  1  0.620534  0.753293  0.531768  0  .  1
   V  V19  1  0.879466  0.253293  0.531768  0  .  1
   V  V20  1  0.879466  0.746707  0.031768  0  .  1
   V  V21  1  0.141846  0.101622  0.604848  0  .  1
   V  V22  1  0.141846  0.898378  0.104848  0  .  1
   V  V23  1  0.358154  0.398378  0.104848  0  .  1
   V  V24  1  0.358154  0.601622  0.604848  0  .  1
   V  V25  1  0.641846  0.398378  0.395152  0  .  1
   V  V26  1  0.641846  0.601622  0.895152  0  .  1
   V  V27  1  0.858154  0.101622  0.895152  0  .  1
   V  V28  1  0.858154  0.898378  0.395152  0  .  1
   O  O29  1  0.017013  0.155000  0.556170  0  .  1
   O  O30  1  0.017013  0.845000  0.056170  0  .  1
   O  O31  1  0.072047  0.575727  0.369104  0  .  1
   O  O32  1  0.072047  0.424273  0.869104  0  .  1
   O  O33  1  0.088401  0.353350  0.157610  0  .  1
   O  O34  1  0.088401  0.646650  0.657610  0  .  1
   O  O35  1  0.158717  0.088510  0.100140  0  .  1
   O  O36  1  0.158717  0.911490  0.600140  0  .  1
   O  O37  1  0.172773  0.164312  0.779265  0  .  1
   O  O38  1  0.172773  0.835688  0.279265  0  .  1
   O  O39  1  0.229653  0.821354  0.976867  0  .  1
   O  O40  1  0.229653  0.178646  0.476867  0  .  1
   O  O41  1  0.270347  0.321354  0.976867  0  .  1
   O  O42  1  0.270347  0.678646  0.476867  0  .  1
   O  O43  1  0.327227  0.664312  0.779265  0  .  1
   O  O44  1  0.327227  0.335688  0.279265  0  .  1
   O  O45  1  0.341283  0.411490  0.600140  0  .  1
   O  O46  1  0.341283  0.588510  0.100140  0  .  1
   O  O47  1  0.411599  0.146650  0.657610  0  .  1
   O  O48  1  0.411599  0.853350  0.157610  0  .  1
   O  O49  1  0.427953  0.075727  0.369104  0  .  1
   O  O50  1  0.427953  0.924273  0.869104  0  .  1
   O  O51  1  0.482987  0.655000  0.556170  0  .  1
   O  O52  1  0.482987  0.345000  0.056170  0  .  1
   O  O53  1  0.517013  0.345000  0.443830  0  .  1
   O  O54  1  0.517013  0.655000  0.943830  0  .  1
   O  O55  1  0.572047  0.075727  0.130896  0  .  1
   O  O56  1  0.572047  0.924273  0.630896  0  .  1
   O  O57  1  0.588401  0.146650  0.842390  0  .  1
   O  O58  1  0.588401  0.853350  0.342390  0  .  1
   O  O59  1  0.658717  0.411490  0.899860  0  .  1
   O  O60  1  0.658717  0.588510  0.399860  0  .  1
   O  O61  1  0.672773  0.335688  0.220735  0  .  1
   O  O62  1  0.672773  0.664312  0.720735  0  .  1
   O  O63  1  0.729653  0.321354  0.523133  0  .  1
   O  O64  1  0.729653  0.678646  0.023133  0  .  1
   O  O65  1  0.770347  0.178646  0.023133  0  .  1
   O  O66  1  0.770347  0.821354  0.523133  0  .  1
   O  O67  1  0.827227  0.164312  0.720735  0  .  1
   O  O68  1  0.827227  0.835688  0.220735  0  .  1
   O  O69  1  0.841283  0.088510  0.399860  0  .  1
   O  O70  1  0.841283  0.911490  0.899860  0  .  1
   O  O71  1  0.911599  0.353350  0.342390  0  .  1
   O  O72  1  0.911599  0.646650  0.842390  0  .  1
   O  O73  1  0.927953  0.424273  0.630896  0  .  1
   O  O74  1  0.927953  0.575727  0.130896  0  .  1
   O  O75  1  0.982987  0.155000  0.943830  0  .  1
   O  O76  1  0.982987  0.845000  0.443830  0  .  1
 
