#\#CIF1.1
##########################################################################
#               Crystallographic Information Format file 
#               Produced by PyCifRW module
# 
#  This is a CIF file.  CIF has been adopted by the International
#  Union of Crystallography as the standard for data archiving and 
#  transmission.
#
#  For information on this file format, follow the CIF links at
#  http://www.iucr.org
##########################################################################

data_Li2V2S5
_symmetry_space_group_name_H-M          'P 1'
_cell_length_a                          5.89949044625
_cell_length_b                          5.89949044625
_cell_length_c                          11.6047785288
_cell_angle_alpha                       69.1515154957
_cell_angle_beta                        110.848484504
_cell_angle_gamma                       116.241633246
_chemical_name_systematic               'Generated by pymatgen'
_symmetry_Int_Tables_number             1
_chemical_formula_structural            Li2V2S5
_chemical_formula_sum                   'Li4 V4 S10'
_cell_volume                            328.913464721
_cell_formula_units_Z                   2
loop_
  _symmetry_equiv_pos_site_id
  _symmetry_equiv_pos_as_xyz
   1  'x, y, z'
 
loop_
  _atom_site_type_symbol
  _atom_site_label
  _atom_site_symmetry_multiplicity
  _atom_site_fract_x
  _atom_site_fract_y
  _atom_site_fract_z
  _atom_site_attached_hydrogens
  _atom_site_B_iso_or_equiv
  _atom_site_occupancy
   Li  Li1  1  0.182477  0.565394  0.680363  0  .  1
   Li  Li2  1  0.434606  0.817523  0.180363  0  .  1
   Li  Li3  1  0.565394  0.182477  0.819637  0  .  1
   Li  Li4  1  0.817523  0.434606  0.319637  0  .  1
   V  V5  1  0.759966  0.942037  0.552542  0  .  1
   V  V6  1  0.942037  0.759966  0.947458  0  .  1
   V  V7  1  0.057963  0.240034  0.052542  0  .  1
   V  V8  1  0.240034  0.057963  0.447458  0  .  1
   S  S9  1  0.294190  0.700982  0.967372  0  .  1
   S  S10  1  0.299018  0.705810  0.467372  0  .  1
   S  S11  1  0.022931  0.192254  0.857894  0  .  1
   S  S12  1  0.662108  0.662108  0.750000  0  .  1
   S  S13  1  0.192254  0.022931  0.642106  0  .  1
   S  S14  1  0.807746  0.977069  0.357894  0  .  1
   S  S15  1  0.337892  0.337892  0.250000  0  .  1
   S  S16  1  0.977069  0.807746  0.142106  0  .  1
   S  S17  1  0.700982  0.294190  0.532628  0  .  1
   S  S18  1  0.705810  0.299018  0.032628  0  .  1
 
