#\#CIF1.1
##########################################################################
#               Crystallographic Information Format file 
#               Produced by PyCifRW module
# 
#  This is a CIF file.  CIF has been adopted by the International
#  Union of Crystallography as the standard for data archiving and 
#  transmission.
#
#  For information on this file format, follow the CIF links at
#  http://www.iucr.org
##########################################################################

data_Li2V3O8
_symmetry_space_group_name_H-M          'P 1'
_cell_length_a                          8.95256466
_cell_length_b                          8.95256466
_cell_length_c                          5.27918623
_cell_angle_alpha                       90.0
_cell_angle_beta                        90.0
_cell_angle_gamma                       90.0
_chemical_name_systematic               'Generated by pymatgen'
_symmetry_Int_Tables_number             1
_chemical_formula_structural            Li2V3O8
_chemical_formula_sum                   'Li4 V6 O16'
_cell_volume                            423.1184035
_cell_formula_units_Z                   2
loop_
  _symmetry_equiv_pos_site_id
  _symmetry_equiv_pos_as_xyz
   1  'x, y, z'
 
loop_
  _atom_site_type_symbol
  _atom_site_label
  _atom_site_symmetry_multiplicity
  _atom_site_fract_x
  _atom_site_fract_y
  _atom_site_fract_z
  _atom_site_attached_hydrogens
  _atom_site_B_iso_or_equiv
  _atom_site_occupancy
   Li  Li1  1  0.242105  0.257895  0.897367  0  .  1
   Li  Li2  1  0.257895  0.757895  0.897367  0  .  1
   Li  Li3  1  0.742105  0.242105  0.897367  0  .  1
   Li  Li4  1  0.757895  0.742105  0.897367  0  .  1
   V  V5  1  0.000000  0.000000  0.529029  0  .  1
   V  V6  1  0.139534  0.639534  0.483178  0  .  1
   V  V7  1  0.360466  0.139534  0.483178  0  .  1
   V  V8  1  0.500000  0.500000  0.529029  0  .  1
   V  V9  1  0.639534  0.860466  0.483178  0  .  1
   V  V10  1  0.860466  0.360466  0.483178  0  .  1
   O  O11  1  0.000000  0.000000  0.219318  0  .  1
   O  O12  1  0.000000  0.500000  0.561590  0  .  1
   O  O13  1  0.095591  0.808066  0.634021  0  .  1
   O  O14  1  0.159969  0.659969  0.171971  0  .  1
   O  O15  1  0.191934  0.095591  0.634021  0  .  1
   O  O16  1  0.308066  0.595591  0.634021  0  .  1
   O  O17  1  0.340031  0.159969  0.171971  0  .  1
   O  O18  1  0.404409  0.308066  0.634021  0  .  1
   O  O19  1  0.500000  0.500000  0.219318  0  .  1
   O  O20  1  0.500000  0.000000  0.561590  0  .  1
   O  O21  1  0.595591  0.691934  0.634021  0  .  1
   O  O22  1  0.659969  0.840031  0.171971  0  .  1
   O  O23  1  0.691934  0.404409  0.634021  0  .  1
   O  O24  1  0.808066  0.904409  0.634021  0  .  1
   O  O25  1  0.840031  0.340031  0.171971  0  .  1
   O  O26  1  0.904409  0.191934  0.634021  0  .  1
 
