#\#CIF1.1
##########################################################################
#               Crystallographic Information Format file 
#               Produced by PyCifRW module
# 
#  This is a CIF file.  CIF has been adopted by the International
#  Union of Crystallography as the standard for data archiving and 
#  transmission.
#
#  For information on this file format, follow the CIF links at
#  http://www.iucr.org
##########################################################################

data_Li2V12O29
_symmetry_space_group_name_H-M          'P 1'
_cell_length_a                          14.2809992516
_cell_length_b                          14.2809992516
_cell_length_c                          10.3755660906
_cell_angle_alpha                       78.3242773565
_cell_angle_beta                        101.675722643
_cell_angle_gamma                       165.206900914
_chemical_name_systematic               'Generated by pymatgen'
_symmetry_Int_Tables_number             1
_chemical_formula_structural            Li2V12O29
_chemical_formula_sum                   'Li2 V12 O29'
_cell_volume                            528.923576986
_cell_formula_units_Z                   1
loop_
  _symmetry_equiv_pos_site_id
  _symmetry_equiv_pos_as_xyz
   1  'x, y, z'
 
loop_
  _atom_site_type_symbol
  _atom_site_label
  _atom_site_symmetry_multiplicity
  _atom_site_fract_x
  _atom_site_fract_y
  _atom_site_fract_z
  _atom_site_attached_hydrogens
  _atom_site_B_iso_or_equiv
  _atom_site_occupancy
   Li  Li1  1  0.249313  0.750687  0.598324  0  .  1
   Li  Li2  1  0.750687  0.249313  0.401676  0  .  1
   V  V3  1  0.062257  0.937743  0.090431  0  .  1
   V  V4  1  0.148394  0.851606  0.356924  0  .  1
   V  V5  1  0.176628  0.823372  0.032818  0  .  1
   V  V6  1  0.303800  0.696200  0.201657  0  .  1
   V  V7  1  0.392491  0.607509  0.458600  0  .  1
   V  V8  1  0.414742  0.585258  0.138337  0  .  1
   V  V9  1  0.585258  0.414742  0.861663  0  .  1
   V  V10  1  0.607509  0.392491  0.541400  0  .  1
   V  V11  1  0.696200  0.303800  0.798343  0  .  1
   V  V12  1  0.823372  0.176628  0.967182  0  .  1
   V  V13  1  0.851606  0.148394  0.643076  0  .  1
   V  V14  1  0.937743  0.062257  0.909569  0  .  1
   O  O15  1  0.059275  0.940725  0.245272  0  .  1
   O  O16  1  0.098793  0.901207  0.910913  0  .  1
   O  O17  1  0.123889  0.876111  0.524496  0  .  1
   O  O18  1  0.140798  0.859202  0.161513  0  .  1
   O  O19  1  0.193649  0.806351  0.856365  0  .  1
   O  O20  1  0.209092  0.790908  0.408995  0  .  1
   O  O21  1  0.232879  0.767121  0.125920  0  .  1
   O  O22  1  0.296364  0.703636  0.357490  0  .  1
   O  O23  1  0.370289  0.629711  0.626953  0  .  1
   O  O24  1  0.332402  0.667598  0.014448  0  .  1
   O  O25  1  0.378124  0.621876  0.270597  0  .  1
   O  O26  1  0.428443  0.571557  0.953445  0  .  1
   O  O27  1  0.449840  0.550160  0.489969  0  .  1
   O  O28  1  0.468539  0.531461  0.222817  0  .  1
   O  O29  1  0.531461  0.468539  0.777183  0  .  1
   O  O30  1  0.000000  0.000000  0.000000  0  .  1
   O  O31  1  0.550160  0.449840  0.510031  0  .  1
   O  O32  1  0.571557  0.428443  0.046555  0  .  1
   O  O33  1  0.621876  0.378124  0.729403  0  .  1
   O  O34  1  0.667598  0.332402  0.985552  0  .  1
   O  O35  1  0.629711  0.370289  0.373047  0  .  1
   O  O36  1  0.703636  0.296364  0.642510  0  .  1
   O  O37  1  0.767121  0.232879  0.874080  0  .  1
   O  O38  1  0.790908  0.209092  0.591005  0  .  1
   O  O39  1  0.806351  0.193649  0.143635  0  .  1
   O  O40  1  0.859202  0.140798  0.838487  0  .  1
   O  O41  1  0.876111  0.123889  0.475504  0  .  1
   O  O42  1  0.901207  0.098793  0.089087  0  .  1
   O  O43  1  0.940725  0.059275  0.754728  0  .  1
 
