#\#CIF1.1
##########################################################################
#               Crystallographic Information Format file 
#               Produced by PyCifRW module
# 
#  This is a CIF file.  CIF has been adopted by the International
#  Union of Crystallography as the standard for data archiving and 
#  transmission.
#
#  For information on this file format, follow the CIF links at
#  http://www.iucr.org
##########################################################################

data_Li3(CoO2)5
_symmetry_space_group_name_H-M          'P 1'
_cell_length_a                          2.83398617854
_cell_length_b                          12.2762023898
_cell_length_c                          9.95666404022
_cell_angle_alpha                       88.9801880217
_cell_angle_beta                        89.4044740462
_cell_angle_gamma                       96.206784952
_chemical_name_systematic               'Generated by pymatgen'
_symmetry_Int_Tables_number             1
_chemical_formula_structural            Li3(CoO2)5
_chemical_formula_sum                   'Li6 Co10 O20'
_cell_volume                            344.286679584
_cell_formula_units_Z                   2
loop_
  _symmetry_equiv_pos_site_id
  _symmetry_equiv_pos_as_xyz
   1  'x, y, z'
 
loop_
  _atom_site_type_symbol
  _atom_site_label
  _atom_site_symmetry_multiplicity
  _atom_site_fract_x
  _atom_site_fract_y
  _atom_site_fract_z
  _atom_site_attached_hydrogens
  _atom_site_B_iso_or_equiv
  _atom_site_occupancy
   Li  Li1  1  0.664627  0.819708  0.748885  0  .  1
   Li  Li2  1  0.454260  0.903065  0.245531  0  .  1
   Li  Li3  1  0.820773  0.679446  0.249115  0  .  1
   Li  Li4  1  0.204264  0.464523  0.245937  0  .  1
   Li  Li5  1  0.871750  0.229124  0.748830  0  .  1
   Li  Li6  1  0.573507  0.245284  0.250351  0  .  1
   Co  Co7  1  0.706025  0.902348  0.502825  0  .  1
   Co  Co8  1  0.392427  0.797330  0.006916  0  .  1
   Co  Co9  1  0.790945  0.597556  0.000418  0  .  1
   Co  Co10  1  0.106407  0.702842  0.497529  0  .  1
   Co  Co11  1  0.508894  0.504351  0.500030  0  .  1
   Co  Co12  1  0.911751  0.304896  0.497377  0  .  1
   Co  Co13  1  0.191135  0.396059  0.994083  0  .  1
   Co  Co14  1  0.589331  0.197637  0.003220  0  .  1
   Co  Co15  1  0.308066  0.101618  0.500125  0  .  1
   Co  Co16  1  0.994043  0.997772  0.997751  0  .  1
   O  O17  1  0.239615  0.970706  0.403767  0  .  1
   O  O18  1  0.926289  0.868047  0.108276  0  .  1
   O  O19  1  0.467679  0.930434  0.903509  0  .  1
   O  O20  1  0.865147  0.734948  0.906839  0  .  1
   O  O21  1  0.638809  0.773657  0.395005  0  .  1
   O  O22  1  0.169434  0.831869  0.603216  0  .  1
   O  O23  1  0.318377  0.661450  0.108725  0  .  1
   O  O24  1  0.567733  0.632307  0.590775  0  .  1
   O  O25  1  0.261267  0.529855  0.912058  0  .  1
   O  O26  1  0.718339  0.459800  0.100778  0  .  1
   O  O27  1  0.038456  0.568816  0.390766  0  .  1
   O  O28  1  0.972713  0.436925  0.592159  0  .  1
   O  O29  1  0.665093  0.330537  0.899106  0  .  1
   O  O30  1  0.445316  0.370422  0.391914  0  .  1
   O  O31  1  0.847871  0.171169  0.400351  0  .  1
   O  O32  1  0.373978  0.235037  0.600647  0  .  1
   O  O33  1  0.115568  0.265993  0.105907  0  .  1
   O  O34  1  0.769974  0.036312  0.596828  0  .  1
   O  O35  1  0.521100  0.060473  0.097607  0  .  1
   O  O36  1  0.063401  0.134207  0.902848  0  .  1
 
