#\#CIF1.1
##########################################################################
#               Crystallographic Information Format file 
#               Produced by PyCifRW module
# 
#  This is a CIF file.  CIF has been adopted by the International
#  Union of Crystallography as the standard for data archiving and 
#  transmission.
#
#  For information on this file format, follow the CIF links at
#  http://www.iucr.org
##########################################################################

data_Li3(CoS2)4
_symmetry_space_group_name_H-M          'P 1'
_cell_length_a                          6.76529817
_cell_length_b                          7.37900375142
_cell_length_c                          6.7655797615
_cell_angle_alpha                       62.5947235354
_cell_angle_beta                        60.0013817466
_cell_angle_gamma                       62.7150999471
_chemical_name_systematic               'Generated by pymatgen'
_symmetry_Int_Tables_number             1
_chemical_formula_structural            Li3(CoS2)4
_chemical_formula_sum                   'Li3 Co4 S8'
_cell_volume                            247.963343885
_cell_formula_units_Z                   1
loop_
  _symmetry_equiv_pos_site_id
  _symmetry_equiv_pos_as_xyz
   1  'x, y, z'
 
loop_
  _atom_site_type_symbol
  _atom_site_label
  _atom_site_symmetry_multiplicity
  _atom_site_fract_x
  _atom_site_fract_y
  _atom_site_fract_z
  _atom_site_attached_hydrogens
  _atom_site_B_iso_or_equiv
  _atom_site_occupancy
   Li  Li1  1  0.355653  0.426306  0.358414  0  .  1
   Li  Li2  1  0.859626  0.426306  0.358414  0  .  1
   Li  Li3  1  0.355795  0.426222  0.862189  0  .  1
   Co  Co4  1  0.998843  0.998774  0.003540  0  .  1
   Co  Co5  1  0.996779  0.991344  0.508325  0  .  1
   Co  Co6  1  0.503551  0.991344  0.508325  0  .  1
   Co  Co7  1  0.503584  0.991422  0.001412  0  .  1
   S  S8  1  0.269145  0.188755  0.272955  0  .  1
   S  S9  1  0.770879  0.182778  0.275464  0  .  1
   S  S10  1  0.728952  0.811315  0.232609  0  .  1
   S  S11  1  0.227124  0.811315  0.232609  0  .  1
   S  S12  1  0.271445  0.182873  0.774742  0  .  1
   S  S13  1  0.770939  0.182873  0.774742  0  .  1
   S  S14  1  0.227119  0.811239  0.734522  0  .  1
   S  S15  1  0.728016  0.810383  0.733586  0  .  1
 
