#\#CIF1.1
##########################################################################
#               Crystallographic Information Format file 
#               Produced by PyCifRW module
# 
#  This is a CIF file.  CIF has been adopted by the International
#  Union of Crystallography as the standard for data archiving and 
#  transmission.
#
#  For information on this file format, follow the CIF links at
#  http://www.iucr.org
##########################################################################

data_Li3(NiO2)8
_symmetry_space_group_name_H-M          'P 1'
_cell_length_a                          10.2546844598
_cell_length_b                          14.8561600683
_cell_length_c                          14.9252653821
_cell_angle_alpha                       19.2008231701
_cell_angle_beta                        28.5426928156
_cell_angle_gamma                       21.1981475689
_chemical_name_systematic               'Generated by pymatgen'
_symmetry_Int_Tables_number             1
_chemical_formula_structural            Li3(NiO2)8
_chemical_formula_sum                   'Li3 Ni8 O16'
_cell_volume                            270.363695395
_cell_formula_units_Z                   1
loop_
  _symmetry_equiv_pos_site_id
  _symmetry_equiv_pos_as_xyz
   1  'x, y, z'
 
loop_
  _atom_site_type_symbol
  _atom_site_label
  _atom_site_symmetry_multiplicity
  _atom_site_fract_x
  _atom_site_fract_y
  _atom_site_fract_z
  _atom_site_attached_hydrogens
  _atom_site_B_iso_or_equiv
  _atom_site_occupancy
   Li  Li1  1  0.500000  0.000000  0.000000  0  .  1
   Li  Li2  1  0.405092  0.229875  0.499816  0  .  1
   Li  Li3  1  0.594908  0.770125  0.500184  0  .  1
   Ni  Ni4  1  0.187412  0.125141  0.249689  0  .  1
   Ni  Ni5  1  0.688648  0.124496  0.248361  0  .  1
   Ni  Ni6  1  0.063073  0.375405  0.750132  0  .  1
   Ni  Ni7  1  0.436637  0.624521  0.250052  0  .  1
   Ni  Ni8  1  0.563363  0.375479  0.749948  0  .  1
   Ni  Ni9  1  0.936927  0.624595  0.249868  0  .  1
   Ni  Ni10  1  0.311352  0.875504  0.751639  0  .  1
   Ni  Ni11  1  0.812588  0.874859  0.750311  0  .  1
   O  O12  1  0.092527  0.063538  0.106573  0  .  1
   O  O13  1  0.587500  0.031787  0.146947  0  .  1
   O  O14  1  0.291552  0.192997  0.376861  0  .  1
   O  O15  1  0.337891  0.542540  0.134327  0  .  1
   O  O16  1  0.035515  0.675507  0.398992  0  .  1
   O  O17  1  0.785422  0.184138  0.392817  0  .  1
   O  O18  1  0.466437  0.282239  0.644579  0  .  1
   O  O19  1  0.834594  0.570245  0.106086  0  .  1
   O  O20  1  0.165405  0.429755  0.893914  0  .  1
   O  O21  1  0.533563  0.717761  0.355421  0  .  1
   O  O22  1  0.214579  0.815862  0.607183  0  .  1
   O  O23  1  0.964485  0.324493  0.601008  0  .  1
   O  O24  1  0.662109  0.457460  0.865673  0  .  1
   O  O25  1  0.708448  0.807003  0.623139  0  .  1
   O  O26  1  0.412500  0.968213  0.853053  0  .  1
   O  O27  1  0.907473  0.936462  0.893427  0  .  1
 
