#\#CIF1.1
##########################################################################
#               Crystallographic Information Format file 
#               Produced by PyCifRW module
# 
#  This is a CIF file.  CIF has been adopted by the International
#  Union of Crystallography as the standard for data archiving and 
#  transmission.
#
#  For information on this file format, follow the CIF links at
#  http://www.iucr.org
##########################################################################

data_Li3(CoO2)4
_symmetry_space_group_name_H-M          'P 1'
_cell_length_a                          5.66393482
_cell_length_b                          5.6639351224
_cell_length_c                          5.79107644355
_cell_angle_alpha                       119.276360889
_cell_angle_beta                        90.0
_cell_angle_gamma                       59.9999959257
_chemical_name_systematic               'Generated by pymatgen'
_symmetry_Int_Tables_number             1
_chemical_formula_structural            Li3(CoO2)4
_chemical_formula_sum                   'Li3 Co4 O8'
_cell_volume                            132.783898172
_cell_formula_units_Z                   1
loop_
  _symmetry_equiv_pos_site_id
  _symmetry_equiv_pos_as_xyz
   1  'x, y, z'
 
loop_
  _atom_site_type_symbol
  _atom_site_label
  _atom_site_symmetry_multiplicity
  _atom_site_fract_x
  _atom_site_fract_y
  _atom_site_fract_z
  _atom_site_attached_hydrogens
  _atom_site_B_iso_or_equiv
  _atom_site_occupancy
   Li  Li1  1  0.000000  0.500000  0.000000  0  .  1
   Li  Li2  1  0.500000  0.000000  0.000000  0  .  1
   Li  Li3  1  0.500000  0.500000  0.000000  0  .  1
   Co  Co4  1  0.000000  0.000000  0.500000  0  .  1
   Co  Co5  1  0.000000  0.500000  0.500000  0  .  1
   Co  Co6  1  0.500000  0.000000  0.500000  0  .  1
   Co  Co7  1  0.500000  0.500000  0.500000  0  .  1
   O  O8  1  0.244072  0.023171  0.290413  0  .  1
   O  O9  1  0.267242  0.465516  0.709587  0  .  1
   O  O10  1  0.239093  0.521815  0.282722  0  .  1
   O  O11  1  0.732758  0.023171  0.290413  0  .  1
   O  O12  1  0.267242  0.976829  0.709587  0  .  1
   O  O13  1  0.760907  0.478185  0.717278  0  .  1
   O  O14  1  0.732758  0.534484  0.290413  0  .  1
   O  O15  1  0.755928  0.976829  0.709587  0  .  1
 
