#\#CIF1.1
##########################################################################
#               Crystallographic Information Format file 
#               Produced by PyCifRW module
# 
#  This is a CIF file.  CIF has been adopted by the International
#  Union of Crystallography as the standard for data archiving and 
#  transmission.
#
#  For information on this file format, follow the CIF links at
#  http://www.iucr.org
##########################################################################

data_Li3(FeO2)5
_symmetry_space_group_name_H-M          'P 1'
_cell_length_a                          5.18858053565
_cell_length_b                          5.18901000406
_cell_length_c                          7.9255738092
_cell_angle_alpha                       109.165639021
_cell_angle_beta                        102.597746396
_cell_angle_gamma                       99.8896924527
_chemical_name_systematic               'Generated by pymatgen'
_symmetry_Int_Tables_number             1
_chemical_formula_structural            Li3(FeO2)5
_chemical_formula_sum                   'Li3 Fe5 O10'
_cell_volume                            189.727220167
_cell_formula_units_Z                   1
loop_
  _symmetry_equiv_pos_site_id
  _symmetry_equiv_pos_as_xyz
   1  'x, y, z'
 
loop_
  _atom_site_type_symbol
  _atom_site_label
  _atom_site_symmetry_multiplicity
  _atom_site_fract_x
  _atom_site_fract_y
  _atom_site_fract_z
  _atom_site_attached_hydrogens
  _atom_site_B_iso_or_equiv
  _atom_site_occupancy
   Li  Li1  1  0.210673  0.919007  0.412925  0  .  1
   Li  Li2  1  0.500000  0.500000  0.500000  0  .  1
   Li  Li3  1  0.789327  0.080993  0.587075  0  .  1
   Fe  Fe4  1  0.117514  0.693205  0.690731  0  .  1
   Fe  Fe5  1  0.000000  0.500000  0.000000  0  .  1
   Fe  Fe6  1  0.694370  0.880983  0.896468  0  .  1
   Fe  Fe7  1  0.305630  0.119017  0.103532  0  .  1
   Fe  Fe8  1  0.882486  0.306795  0.309269  0  .  1
   O  O9  1  0.028160  0.116477  0.867272  0  .  1
   O  O10  1  0.111196  0.295895  0.520258  0  .  1
   O  O11  1  0.330485  0.731214  0.929862  0  .  1
   O  O12  1  0.192919  0.469905  0.236565  0  .  1
   O  O13  1  0.443383  0.861405  0.657247  0  .  1
   O  O14  1  0.556617  0.138595  0.342753  0  .  1
   O  O15  1  0.807081  0.530095  0.763435  0  .  1
   O  O16  1  0.669515  0.268786  0.070138  0  .  1
   O  O17  1  0.888804  0.704105  0.479742  0  .  1
   O  O18  1  0.971840  0.883523  0.132728  0  .  1
 
