#\#CIF1.1
##########################################################################
#               Crystallographic Information Format file 
#               Produced by PyCifRW module
# 
#  This is a CIF file.  CIF has been adopted by the International
#  Union of Crystallography as the standard for data archiving and 
#  transmission.
#
#  For information on this file format, follow the CIF links at
#  http://www.iucr.org
##########################################################################

data_Li3(CrS2)4
_symmetry_space_group_name_H-M          'P 1'
_cell_length_a                          6.96855945
_cell_length_b                          7.63893357256
_cell_length_c                          6.97053504773
_cell_angle_alpha                       62.7451416633
_cell_angle_beta                        60.009375104
_cell_angle_gamma                       62.8629011084
_chemical_name_systematic               'Generated by pymatgen'
_symmetry_Int_Tables_number             1
_chemical_formula_structural            Li3(CrS2)4
_chemical_formula_sum                   'Li3 Cr4 S8'
_cell_volume                            272.973351807
_cell_formula_units_Z                   1
loop_
  _symmetry_equiv_pos_site_id
  _symmetry_equiv_pos_as_xyz
   1  'x, y, z'
 
loop_
  _atom_site_type_symbol
  _atom_site_label
  _atom_site_symmetry_multiplicity
  _atom_site_fract_x
  _atom_site_fract_y
  _atom_site_fract_z
  _atom_site_attached_hydrogens
  _atom_site_B_iso_or_equiv
  _atom_site_occupancy
   Li  Li1  1  0.354507  0.428542  0.357593  0  .  1
   Li  Li2  1  0.859360  0.428542  0.357593  0  .  1
   Li  Li3  1  0.354576  0.428670  0.862178  0  .  1
   Cr  Cr4  1  0.997916  0.001681  0.002485  0  .  1
   Cr  Cr5  1  0.992373  0.986036  0.513120  0  .  1
   Cr  Cr6  1  0.508470  0.986036  0.513120  0  .  1
   Cr  Cr7  1  0.508582  0.985923  0.996912  0  .  1
   S  S8  1  0.265319  0.200256  0.269107  0  .  1
   S  S9  1  0.763265  0.202897  0.270573  0  .  1
   S  S10  1  0.733535  0.798512  0.236737  0  .  1
   S  S11  1  0.231215  0.798512  0.236737  0  .  1
   S  S12  1  0.266806  0.202976  0.767019  0  .  1
   S  S13  1  0.763199  0.202976  0.767019  0  .  1
   S  S14  1  0.231216  0.798572  0.738995  0  .  1
   S  S15  1  0.737111  0.783118  0.742659  0  .  1
 
