#\#CIF1.1
##########################################################################
#               Crystallographic Information Format file 
#               Produced by PyCifRW module
# 
#  This is a CIF file.  CIF has been adopted by the International
#  Union of Crystallography as the standard for data archiving and 
#  transmission.
#
#  For information on this file format, follow the CIF links at
#  http://www.iucr.org
##########################################################################

data_Li3(NiO2)5
_symmetry_space_group_name_H-M          'P 1'
_cell_length_a                          5.03632363888
_cell_length_b                          5.00743139899
_cell_length_c                          7.47809262024
_cell_angle_alpha                       110.092837949
_cell_angle_beta                        102.026880647
_cell_angle_gamma                       100.083652614
_chemical_name_systematic               'Generated by pymatgen'
_symmetry_Int_Tables_number             1
_chemical_formula_structural            Li3(NiO2)5
_chemical_formula_sum                   'Li3 Ni5 O10'
_cell_volume                            166.861291186
_cell_formula_units_Z                   1
loop_
  _symmetry_equiv_pos_site_id
  _symmetry_equiv_pos_as_xyz
   1  'x, y, z'
 
loop_
  _atom_site_type_symbol
  _atom_site_label
  _atom_site_symmetry_multiplicity
  _atom_site_fract_x
  _atom_site_fract_y
  _atom_site_fract_z
  _atom_site_attached_hydrogens
  _atom_site_B_iso_or_equiv
  _atom_site_occupancy
   Li  Li1  1  0.221126  0.916704  0.416939  0  .  1
   Li  Li2  1  0.500000  0.500000  0.500000  0  .  1
   Li  Li3  1  0.778874  0.083296  0.583061  0  .  1
   Ni  Ni4  1  0.108129  0.700962  0.699673  0  .  1
   Ni  Ni5  1  0.000000  0.500000  0.000000  0  .  1
   Ni  Ni6  1  0.300951  0.112330  0.098422  0  .  1
   Ni  Ni7  1  0.699049  0.887670  0.901578  0  .  1
   Ni  Ni8  1  0.891871  0.299038  0.300327  0  .  1
   O  O9  1  0.055606  0.076700  0.854431  0  .  1
   O  O10  1  0.115456  0.321696  0.539133  0  .  1
   O  O11  1  0.315309  0.723540  0.948284  0  .  1
   O  O12  1  0.209080  0.472470  0.233265  0  .  1
   O  O13  1  0.446801  0.868950  0.666316  0  .  1
   O  O14  1  0.553199  0.131050  0.333684  0  .  1
   O  O15  1  0.790920  0.527530  0.766735  0  .  1
   O  O16  1  0.684691  0.276460  0.051716  0  .  1
   O  O17  1  0.884544  0.678304  0.460867  0  .  1
   O  O18  1  0.944394  0.923300  0.145569  0  .  1
 
