#\#CIF1.1
##########################################################################
#               Crystallographic Information Format file 
#               Produced by PyCifRW module
# 
#  This is a CIF file.  CIF has been adopted by the International
#  Union of Crystallography as the standard for data archiving and 
#  transmission.
#
#  For information on this file format, follow the CIF links at
#  http://www.iucr.org
##########################################################################

data_Li3(CuO2)2
_symmetry_space_group_name_H-M          'P 1'
_cell_length_a                          5.27822483743
_cell_length_b                          5.27822483138
_cell_length_c                          10.5664208884
_cell_angle_alpha                       138.412486274
_cell_angle_beta                        149.026668054
_cell_angle_gamma                       52.6367593275
_chemical_name_systematic               'Generated by pymatgen'
_symmetry_Int_Tables_number             1
_chemical_formula_structural            Li3(CuO2)2
_chemical_formula_sum                   'Li3 Cu2 O4'
_cell_volume                            100.046750384
_cell_formula_units_Z                   1
loop_
  _symmetry_equiv_pos_site_id
  _symmetry_equiv_pos_as_xyz
   1  'x, y, z'
 
loop_
  _atom_site_type_symbol
  _atom_site_label
  _atom_site_symmetry_multiplicity
  _atom_site_fract_x
  _atom_site_fract_y
  _atom_site_fract_z
  _atom_site_attached_hydrogens
  _atom_site_B_iso_or_equiv
  _atom_site_occupancy
   Li  Li1  1  0.287050  0.787050  0.750000  0  .  1
   Li  Li2  1  0.284494  0.784494  0.250000  0  .  1
   Li  Li3  1  0.708606  0.208606  0.750000  0  .  1
   O  O4  1  0.339889  0.364309  0.984737  0  .  1
   O  O5  1  0.630236  0.605831  0.980874  0  .  1
   O  O6  1  0.644083  0.668489  0.519126  0  .  1
   O  O7  1  0.394835  0.370416  0.515263  0  .  1
   Cu  Cu8  1  0.005160  0.505160  0.750000  0  .  1
   Cu  Cu9  1  0.998646  0.498646  0.250000  0  .  1
 
