#\#CIF1.1
##########################################################################
#               Crystallographic Information Format file 
#               Produced by PyCifRW module
# 
#  This is a CIF file.  CIF has been adopted by the International
#  Union of Crystallography as the standard for data archiving and 
#  transmission.
#
#  For information on this file format, follow the CIF links at
#  http://www.iucr.org
##########################################################################

data_Li35(FeO4)8
_symmetry_space_group_name_H-M          'P 1'
_cell_length_a                          9.43769174518
_cell_length_b                          9.18812665486
_cell_length_c                          9.26759723177
_cell_angle_alpha                       90.0393452067
_cell_angle_beta                        90.2528550307
_cell_angle_gamma                       89.8281502543
_chemical_name_systematic               'Generated by pymatgen'
_symmetry_Int_Tables_number             1
_chemical_formula_structural            Li35(FeO4)8
_chemical_formula_sum                   'Li35 Fe8 O32'
_cell_volume                            803.62535656
_cell_formula_units_Z                   1
loop_
  _symmetry_equiv_pos_site_id
  _symmetry_equiv_pos_as_xyz
   1  'x, y, z'
 
loop_
  _atom_site_type_symbol
  _atom_site_label
  _atom_site_symmetry_multiplicity
  _atom_site_fract_x
  _atom_site_fract_y
  _atom_site_fract_z
  _atom_site_attached_hydrogens
  _atom_site_B_iso_or_equiv
  _atom_site_occupancy
   Li  Li1  1  0.100532  0.626609  0.136148  0  .  1
   Li  Li2  1  0.101545  0.876033  0.638241  0  .  1
   Li  Li3  1  0.115886  0.385141  0.332026  0  .  1
   Li  Li4  1  0.113695  0.847006  0.362273  0  .  1
   Li  Li5  1  0.114967  0.647654  0.854748  0  .  1
   Li  Li6  1  0.160228  0.118748  0.412630  0  .  1
   Li  Li7  1  0.157302  0.370154  0.915965  0  .  1
   Li  Li8  1  0.335398  0.882924  0.916326  0  .  1
   Li  Li9  1  0.337577  0.618552  0.415511  0  .  1
   Li  Li10  1  0.368305  0.154110  0.857284  0  .  1
   Li  Li11  1  0.384108  0.344316  0.360560  0  .  1
   Li  Li12  1  0.382446  0.610798  0.832529  0  .  1
   Li  Li13  1  0.382273  0.889371  0.331066  0  .  1
   Li  Li14  1  0.399615  0.131250  0.136626  0  .  1
   Li  Li15  1  0.402772  0.377093  0.631066  0  .  1
   Li  Li16  1  0.612937  0.616078  0.360837  0  .  1
   Li  Li17  1  0.611343  0.884972  0.864862  0  .  1
   Li  Li18  1  0.608790  0.113992  0.655422  0  .  1
   Li  Li19  1  0.608172  0.386179  0.154189  0  .  1
   Li  Li20  1  0.621472  0.649427  0.627726  0  .  1
   Li  Li21  1  0.619772  0.847686  0.130589  0  .  1
   Li  Li22  1  0.648753  0.620359  0.897215  0  .  1
   Li  Li23  1  0.648730  0.878320  0.393235  0  .  1
   Li  Li24  1  0.663019  0.116507  0.102170  0  .  1
   Li  Li25  1  0.662788  0.385421  0.604256  0  .  1
   Li  Li26  1  0.835294  0.611544  0.107759  0  .  1
   Li  Li27  1  0.836756  0.882487  0.598498  0  .  1
   Li  Li28  1  0.850398  0.378082  0.396061  0  .  1
   Li  Li29  1  0.867130  0.125505  0.895120  0  .  1
   Li  Li30  1  0.877734  0.152837  0.628660  0  .  1
   Li  Li31  1  0.877521  0.349591  0.131799  0  .  1
   Li  Li32  1  0.894624  0.609128  0.652677  0  .  1
   Li  Li33  1  0.889455  0.889034  0.158185  0  .  1
   Li  Li34  1  0.888218  0.116858  0.360391  0  .  1
   Li  Li35  1  0.888174  0.383729  0.864142  0  .  1
   Fe  Fe36  1  0.124369  0.128959  0.118882  0  .  1
   Fe  Fe37  1  0.127171  0.369494  0.621906  0  .  1
   Fe  Fe38  1  0.376167  0.629954  0.120907  0  .  1
   Fe  Fe39  1  0.376211  0.870236  0.621463  0  .  1
   Fe  Fe40  1  0.617929  0.148442  0.378297  0  .  1
   Fe  Fe41  1  0.617244  0.350559  0.878111  0  .  1
   Fe  Fe42  1  0.882959  0.649476  0.379785  0  .  1
   Fe  Fe43  1  0.882411  0.851270  0.877726  0  .  1
   O  O44  1  0.006025  0.264901  0.496372  0  .  1
   O  O45  1  0.003341  0.242123  0.005128  0  .  1
   O  O46  1  0.025773  0.017425  0.252405  0  .  1
   O  O47  1  0.025671  0.478727  0.752205  0  .  1
   O  O48  1  0.256669  0.056048  0.002242  0  .  1
   O  O49  1  0.249997  0.442484  0.488025  0  .  1
   O  O50  1  0.241434  0.224129  0.248646  0  .  1
   O  O51  1  0.253631  0.296362  0.745878  0  .  1
   O  O52  1  0.258786  0.724425  0.246985  0  .  1
   O  O53  1  0.258695  0.776247  0.747590  0  .  1
   O  O54  1  0.246545  0.560503  0.991546  0  .  1
   O  O55  1  0.248686  0.941507  0.490761  0  .  1
   O  O56  1  0.473617  0.518994  0.252740  0  .  1
   O  O57  1  0.474331  0.979736  0.752804  0  .  1
   O  O58  1  0.496292  0.766112  0.495722  0  .  1
   O  O59  1  0.495776  0.735117  0.995242  0  .  1
   O  O60  1  0.518076  0.236220  0.005431  0  .  1
   O  O61  1  0.519775  0.263748  0.507435  0  .  1
   O  O62  1  0.535505  0.006438  0.250633  0  .  1
   O  O63  1  0.537418  0.496253  0.751721  0  .  1
   O  O64  1  0.743454  0.036730  0.498316  0  .  1
   O  O65  1  0.741377  0.462173  0.000763  0  .  1
   O  O66  1  0.746845  0.251079  0.258979  0  .  1
   O  O67  1  0.748834  0.250054  0.759545  0  .  1
   O  O68  1  0.752387  0.750245  0.257798  0  .  1
   O  O69  1  0.759180  0.745485  0.761972  0  .  1
   O  O70  1  0.756992  0.538715  0.499652  0  .  1
   O  O71  1  0.763951  0.963119  0.998699  0  .  1
   O  O72  1  0.947381  0.983646  0.750859  0  .  1
   O  O73  1  0.966116  0.508998  0.252644  0  .  1
   O  O74  1  0.972688  0.733236  0.002984  0  .  1
   O  O75  1  0.983046  0.762820  0.509345  0  .  1
 
