#\#CIF1.1
##########################################################################
#               Crystallographic Information Format file 
#               Produced by PyCifRW module
# 
#  This is a CIF file.  CIF has been adopted by the International
#  Union of Crystallography as the standard for data archiving and 
#  transmission.
#
#  For information on this file format, follow the CIF links at
#  http://www.iucr.org
##########################################################################

data_Li3CoO3
_symmetry_space_group_name_H-M          'P 1'
_cell_length_a                          5.21665383552
_cell_length_b                          5.58476985514
_cell_length_c                          5.70442103706
_cell_angle_alpha                       58.1093851812
_cell_angle_beta                        89.0587789355
_cell_angle_gamma                       89.9882049725
_chemical_name_systematic               'Generated by pymatgen'
_symmetry_Int_Tables_number             1
_chemical_formula_structural            Li3CoO3
_chemical_formula_sum                   'Li6 Co2 O6'
_cell_volume                            141.080217703
_cell_formula_units_Z                   2
loop_
  _symmetry_equiv_pos_site_id
  _symmetry_equiv_pos_as_xyz
   1  'x, y, z'
 
loop_
  _atom_site_type_symbol
  _atom_site_label
  _atom_site_symmetry_multiplicity
  _atom_site_fract_x
  _atom_site_fract_y
  _atom_site_fract_z
  _atom_site_attached_hydrogens
  _atom_site_B_iso_or_equiv
  _atom_site_occupancy
   Li  Li1  1  0.085598  0.727958  0.473776  0  .  1
   Li  Li2  1  0.127857  0.798071  0.993229  0  .  1
   Li  Li3  1  0.445269  0.255819  0.734917  0  .  1
   Li  Li4  1  0.554731  0.744181  0.265083  0  .  1
   Li  Li5  1  0.872143  0.201929  0.006771  0  .  1
   Li  Li6  1  0.914402  0.272042  0.526224  0  .  1
   Co  Co7  1  0.349519  0.212629  0.288040  0  .  1
   Co  Co8  1  0.650481  0.787371  0.711960  0  .  1
   O  O9  1  0.235319  0.097749  0.067392  0  .  1
   O  O10  1  0.250387  0.481535  0.359028  0  .  1
   O  O11  1  0.289677  0.869978  0.655531  0  .  1
   O  O12  1  0.710322  0.130022  0.344469  0  .  1
   O  O13  1  0.749613  0.518465  0.640972  0  .  1
   O  O14  1  0.764681  0.902251  0.932608  0  .  1
 
