#\#CIF1.1
##########################################################################
#               Crystallographic Information Format file 
#               Produced by PyCifRW module
# 
#  This is a CIF file.  CIF has been adopted by the International
#  Union of Crystallography as the standard for data archiving and 
#  transmission.
#
#  For information on this file format, follow the CIF links at
#  http://www.iucr.org
##########################################################################

data_Li3CuS2
_symmetry_space_group_name_H-M          'P 1'
_cell_length_a                          6.41034329367
_cell_length_b                          6.41034329367
_cell_length_c                          6.41034290837
_cell_angle_alpha                       62.3690243342
_cell_angle_beta                        62.3690243342
_cell_angle_gamma                       62.3690338205
_chemical_name_systematic               'Generated by pymatgen'
_symmetry_Int_Tables_number             1
_chemical_formula_structural            Li3CuS2
_chemical_formula_sum                   'Li6 Cu2 S4'
_cell_volume                            196.107276145
_cell_formula_units_Z                   2
loop_
  _symmetry_equiv_pos_site_id
  _symmetry_equiv_pos_as_xyz
   1  'x, y, z'
 
loop_
  _atom_site_type_symbol
  _atom_site_label
  _atom_site_symmetry_multiplicity
  _atom_site_fract_x
  _atom_site_fract_y
  _atom_site_fract_z
  _atom_site_attached_hydrogens
  _atom_site_B_iso_or_equiv
  _atom_site_occupancy
   Li  Li1  1  0.250000  0.973211  0.526789  0  .  1
   Li  Li2  1  0.026789  0.473211  0.750000  0  .  1
   Li  Li3  1  0.473211  0.750000  0.026789  0  .  1
   Li  Li4  1  0.526789  0.250000  0.973211  0  .  1
   Li  Li5  1  0.973211  0.526789  0.250000  0  .  1
   Li  Li6  1  0.750000  0.026789  0.473211  0  .  1
   Cu  Cu7  1  0.000000  0.000000  0.000000  0  .  1
   Cu  Cu8  1  0.500000  0.500000  0.500000  0  .  1
   S  S9  1  0.362009  0.362009  0.362009  0  .  1
   S  S10  1  0.637991  0.637991  0.637991  0  .  1
   S  S11  1  0.137991  0.137991  0.137991  0  .  1
   S  S12  1  0.862009  0.862009  0.862009  0  .  1
 
