#\#CIF1.1
##########################################################################
#               Crystallographic Information Format file 
#               Produced by PyCifRW module
# 
#  This is a CIF file.  CIF has been adopted by the International
#  Union of Crystallography as the standard for data archiving and 
#  transmission.
#
#  For information on this file format, follow the CIF links at
#  http://www.iucr.org
##########################################################################

data_Li3Co13O16
_symmetry_space_group_name_H-M          'P 1'
_cell_length_a                          5.98102960692
_cell_length_b                          5.15519872596
_cell_length_c                          9.90461411749
_cell_angle_alpha                       85.3854375505
_cell_angle_beta                        98.735303708
_cell_angle_gamma                       90.1539523516
_chemical_name_systematic               'Generated by pymatgen'
_symmetry_Int_Tables_number             1
_chemical_formula_structural            Li3Co13O16
_chemical_formula_sum                   'Li3 Co13 O16'
_cell_volume                            300.857945551
_cell_formula_units_Z                   1
loop_
  _symmetry_equiv_pos_site_id
  _symmetry_equiv_pos_as_xyz
   1  'x, y, z'
 
loop_
  _atom_site_type_symbol
  _atom_site_label
  _atom_site_symmetry_multiplicity
  _atom_site_fract_x
  _atom_site_fract_y
  _atom_site_fract_z
  _atom_site_attached_hydrogens
  _atom_site_B_iso_or_equiv
  _atom_site_occupancy
   Li  Li1  1  0.875856  0.748164  0.502770  0  .  1
   Li  Li2  1  0.437500  0.375000  0.750000  0  .  1
   Li  Li3  1  0.999144  0.001836  0.997230  0  .  1
   Co  Co4  1  0.187819  0.874572  0.749618  0  .  1
   Co  Co5  1  0.687181  0.875428  0.750382  0  .  1
   Co  Co6  1  0.377917  0.744737  0.504261  0  .  1
   Co  Co7  1  0.937500  0.375000  0.750000  0  .  1
   Co  Co8  1  0.059437  0.631249  0.248952  0  .  1
   Co  Co9  1  0.565304  0.628462  0.250943  0  .  1
   Co  Co10  1  0.123415  0.254223  0.503227  0  .  1
   Co  Co11  1  0.627717  0.254859  0.503410  0  .  1
   Co  Co12  1  0.309696  0.121538  0.249057  0  .  1
   Co  Co13  1  0.815563  0.118751  0.251048  0  .  1
   Co  Co14  1  0.247283  0.495141  0.996590  0  .  1
   Co  Co15  1  0.751585  0.495777  0.996773  0  .  1
   Co  Co16  1  0.497083  0.005263  0.995739  0  .  1
   O  O17  1  0.470151  0.695972  0.876907  0  .  1
   O  O18  1  0.966803  0.663633  0.866164  0  .  1
   O  O19  1  0.590224  0.945186  0.376055  0  .  1
   O  O20  1  0.098643  0.942048  0.376437  0  .  1
   O  O21  1  0.673310  0.557706  0.633681  0  .  1
   O  O22  1  0.201690  0.192294  0.866319  0  .  1
   O  O23  1  0.143494  0.557809  0.633886  0  .  1
   O  O24  1  0.731506  0.192191  0.866114  0  .  1
   O  O25  1  0.842618  0.431119  0.373769  0  .  1
   O  O26  1  0.345021  0.440848  0.379898  0  .  1
   O  O27  1  0.284776  0.804814  0.123945  0  .  1
   O  O28  1  0.908197  0.086367  0.633836  0  .  1
   O  O29  1  0.776357  0.807952  0.123563  0  .  1
   O  O30  1  0.404849  0.054028  0.623093  0  .  1
   O  O31  1  0.529979  0.309152  0.120102  0  .  1
   O  O32  1  0.032382  0.318881  0.126231  0  .  1
 
