#\#CIF1.1
##########################################################################
#               Crystallographic Information Format file 
#               Produced by PyCifRW module
# 
#  This is a CIF file.  CIF has been adopted by the International
#  Union of Crystallography as the standard for data archiving and 
#  transmission.
#
#  For information on this file format, follow the CIF links at
#  http://www.iucr.org
##########################################################################

data_Li3CrO3
_symmetry_space_group_name_H-M          'P 1'
_cell_length_a                          9.44929202579
_cell_length_b                          5.45582496608
_cell_length_c                          9.81178802175
_cell_angle_alpha                       90.0010405189
_cell_angle_beta                        90.002116263
_cell_angle_gamma                       149.997171367
_chemical_name_systematic               'Generated by pymatgen'
_symmetry_Int_Tables_number             1
_chemical_formula_structural            Li3CrO3
_chemical_formula_sum                   'Li12 Cr4 O12'
_cell_volume                            252.938531423
_cell_formula_units_Z                   4
loop_
  _symmetry_equiv_pos_site_id
  _symmetry_equiv_pos_as_xyz
   1  'x, y, z'
 
loop_
  _atom_site_type_symbol
  _atom_site_label
  _atom_site_symmetry_multiplicity
  _atom_site_fract_x
  _atom_site_fract_y
  _atom_site_fract_z
  _atom_site_attached_hydrogens
  _atom_site_B_iso_or_equiv
  _atom_site_occupancy
   Li  Li1  1  0.372578  0.425316  0.422223  0  .  1
   Li  Li2  1  0.314835  0.253484  0.922022  0  .  1
   Li  Li3  1  0.050459  0.421031  0.922605  0  .  1
   Li  Li4  1  0.674151  0.725654  0.078011  0  .  1
   Li  Li5  1  0.940520  0.256221  0.422512  0  .  1
   Li  Li6  1  0.618247  0.557696  0.578324  0  .  1
   Li  Li7  1  0.316259  0.688837  0.577913  0  .  1
   Li  Li8  1  0.676066  0.296613  0.422230  0  .  1
   Li  Li9  1  0.619031  0.294870  0.922009  0  .  1
   Li  Li10  1  0.371949  0.688050  0.077846  0  .  1
   Li  Li11  1  0.938165  0.556291  0.077948  0  .  1
   Li  Li12  1  0.051212  0.726685  0.577836  0  .  1
   Cr  Cr13  1  0.661942  0.991096  0.749993  0  .  1
   Cr  Cr14  1  0.328710  0.991203  0.249920  0  .  1
   Cr  Cr15  1  0.995482  0.991246  0.249724  0  .  1
   Cr  Cr16  1  0.995440  0.991315  0.749880  0  .  1
   O  O17  1  0.333452  0.373090  0.631832  0  .  1
   O  O18  1  0.289162  0.240590  0.131542  0  .  1
   O  O19  1  0.700452  0.739816  0.867834  0  .  1
   O  O20  1  0.657570  0.610029  0.367867  0  .  1
   O  O21  1  0.951769  0.242004  0.631778  0  .  1
   O  O22  1  0.038804  0.372364  0.131758  0  .  1
   O  O23  1  0.656888  0.358182  0.131672  0  .  1
   O  O24  1  0.290787  0.625224  0.367728  0  .  1
   O  O25  1  0.700992  0.358779  0.631803  0  .  1
   O  O26  1  0.333360  0.623312  0.868099  0  .  1
   O  O27  1  0.951102  0.608096  0.868024  0  .  1
   O  O28  1  0.039682  0.741252  0.368134  0  .  1
 
