#\#CIF1.1
##########################################################################
#               Crystallographic Information Format file 
#               Produced by PyCifRW module
# 
#  This is a CIF file.  CIF has been adopted by the International
#  Union of Crystallography as the standard for data archiving and 
#  transmission.
#
#  For information on this file format, follow the CIF links at
#  http://www.iucr.org
##########################################################################

data_Li3Fe5O9
_symmetry_space_group_name_H-M          'P 1'
_cell_length_a                          8.82577882478
_cell_length_b                          8.82577882478
_cell_length_c                          5.36159289908
_cell_angle_alpha                       89.4418733516
_cell_angle_beta                        90.5581266484
_cell_angle_gamma                       99.2491516165
_chemical_name_systematic               'Generated by pymatgen'
_symmetry_Int_Tables_number             1
_chemical_formula_structural            Li3Fe5O9
_chemical_formula_sum                   'Li6 Fe10 O18'
_cell_volume                            412.174396262
_cell_formula_units_Z                   2
loop_
  _symmetry_equiv_pos_site_id
  _symmetry_equiv_pos_as_xyz
   1  'x, y, z'
 
loop_
  _atom_site_type_symbol
  _atom_site_label
  _atom_site_symmetry_multiplicity
  _atom_site_fract_x
  _atom_site_fract_y
  _atom_site_fract_z
  _atom_site_attached_hydrogens
  _atom_site_B_iso_or_equiv
  _atom_site_occupancy
   Li  Li1  1  0.327133  0.823078  0.216479  0  .  1
   Li  Li2  1  0.176922  0.672867  0.716479  0  .  1
   Li  Li3  1  0.595244  0.595244  0.250000  0  .  1
   Li  Li4  1  0.404756  0.404756  0.750000  0  .  1
   Li  Li5  1  0.823078  0.327133  0.283521  0  .  1
   Li  Li6  1  0.672867  0.176922  0.783521  0  .  1
   Fe  Fe7  1  0.692216  0.976661  0.211045  0  .  1
   Fe  Fe8  1  0.023339  0.307784  0.711045  0  .  1
   Fe  Fe9  1  0.218063  0.455334  0.206665  0  .  1
   Fe  Fe10  1  0.544666  0.781937  0.706666  0  .  1
   Fe  Fe11  1  0.067958  0.067958  0.250000  0  .  1
   Fe  Fe12  1  0.932042  0.932042  0.750000  0  .  1
   Fe  Fe13  1  0.455334  0.218063  0.293335  0  .  1
   Fe  Fe14  1  0.781937  0.544666  0.793334  0  .  1
   Fe  Fe15  1  0.976661  0.692216  0.288955  0  .  1
   Fe  Fe16  1  0.307784  0.023339  0.788955  0  .  1
   O  O17  1  0.018111  0.862319  0.077748  0  .  1
   O  O18  1  0.137681  0.981889  0.577748  0  .  1
   O  O19  1  0.179679  0.642832  0.344615  0  .  1
   O  O20  1  0.357168  0.820321  0.844615  0  .  1
   O  O21  1  0.543436  0.815409  0.349959  0  .  1
   O  O22  1  0.184591  0.456564  0.849959  0  .  1
   O  O23  1  0.084972  0.288591  0.367024  0  .  1
   O  O24  1  0.711409  0.915028  0.867024  0  .  1
   O  O25  1  0.425086  0.425086  0.250000  0  .  1
   O  O26  1  0.574914  0.574914  0.750000  0  .  1
   O  O27  1  0.288591  0.084972  0.132976  0  .  1
   O  O28  1  0.915028  0.711409  0.632976  0  .  1
   O  O29  1  0.815409  0.543436  0.150041  0  .  1
   O  O30  1  0.456564  0.184591  0.650041  0  .  1
   O  O31  1  0.642832  0.179679  0.155385  0  .  1
   O  O32  1  0.820321  0.357168  0.655385  0  .  1
   O  O33  1  0.862319  0.018111  0.422252  0  .  1
   O  O34  1  0.981889  0.137681  0.922252  0  .  1
 
