#\#CIF1.1
##########################################################################
#               Crystallographic Information Format file 
#               Produced by PyCifRW module
# 
#  This is a CIF file.  CIF has been adopted by the International
#  Union of Crystallography as the standard for data archiving and 
#  transmission.
#
#  For information on this file format, follow the CIF links at
#  http://www.iucr.org
##########################################################################

data_Li3Fe5O12
_symmetry_space_group_name_H-M          'P 1'
_cell_length_a                          5.35412084874
_cell_length_b                          5.01147289971
_cell_length_c                          7.37008223091
_cell_angle_alpha                       90.0368504564
_cell_angle_beta                        94.9041064134
_cell_angle_gamma                       90.531713077
_chemical_name_systematic               'Generated by pymatgen'
_symmetry_Int_Tables_number             1
_chemical_formula_structural            Li3Fe5O12
_chemical_formula_sum                   'Li3 Fe5 O12'
_cell_volume                            197.021645425
_cell_formula_units_Z                   1
loop_
  _symmetry_equiv_pos_site_id
  _symmetry_equiv_pos_as_xyz
   1  'x, y, z'
 
loop_
  _atom_site_type_symbol
  _atom_site_label
  _atom_site_symmetry_multiplicity
  _atom_site_fract_x
  _atom_site_fract_y
  _atom_site_fract_z
  _atom_site_attached_hydrogens
  _atom_site_B_iso_or_equiv
  _atom_site_occupancy
   Li  Li1  1  0.939806  0.499944  0.279931  0  .  1
   Li  Li2  1  0.936612  0.498600  0.791553  0  .  1
   Li  Li3  1  0.427257  0.000071  0.784496  0  .  1
   Fe  Fe4  1  0.520411  0.491741  0.990586  0  .  1
   Fe  Fe5  1  0.521587  0.501664  0.503554  0  .  1
   Fe  Fe6  1  0.399059  0.998080  0.293284  0  .  1
   Fe  Fe7  1  0.004404  -0.000216  0.984099  0  .  1
   Fe  Fe8  1  0.992745  0.011101  0.505721  0  .  1
   O  O9  1  0.839667  0.676398  0.041237  0  .  1
   O  O10  1  0.846689  0.344052  0.543796  0  .  1
   O  O11  1  0.691922  0.817730  0.405725  0  .  1
   O  O12  1  0.721621  0.194422  0.916231  0  .  1
   O  O13  1  0.539651  0.343269  0.240850  0  .  1
   O  O14  1  0.528791  0.622886  0.743652  0  .  1
   O  O15  1  0.346635  0.822549  0.058916  0  .  1
   O  O16  1  0.345243  0.175649  0.533839  0  .  1
   O  O17  1  0.224030  0.708747  0.415461  0  .  1
   O  O18  1  0.224710  0.299079  0.916095  0  .  1
   O  O19  1  0.055879  0.119578  0.236754  0  .  1
   O  O20  1  0.034080  0.874657  0.743822  0  .  1
 
