#\#CIF1.1
##########################################################################
#               Crystallographic Information Format file 
#               Produced by PyCifRW module
# 
#  This is a CIF file.  CIF has been adopted by the International
#  Union of Crystallography as the standard for data archiving and 
#  transmission.
#
#  For information on this file format, follow the CIF links at
#  http://www.iucr.org
##########################################################################

data_Li3Fe5O8
_symmetry_space_group_name_H-M          'P 1'
_cell_length_a                          8.56040970791
_cell_length_b                          8.56040970791
_cell_length_c                          8.32208554
_cell_angle_alpha                       90.0
_cell_angle_beta                        90.0
_cell_angle_gamma                       90.6793368928
_chemical_name_systematic               'Generated by pymatgen'
_symmetry_Int_Tables_number             1
_chemical_formula_structural            Li3Fe5O8
_chemical_formula_sum                   'Li12 Fe20 O32'
_cell_volume                            609.804675349
_cell_formula_units_Z                   4
loop_
  _symmetry_equiv_pos_site_id
  _symmetry_equiv_pos_as_xyz
   1  'x, y, z'
 
loop_
  _atom_site_type_symbol
  _atom_site_label
  _atom_site_symmetry_multiplicity
  _atom_site_fract_x
  _atom_site_fract_y
  _atom_site_fract_z
  _atom_site_attached_hydrogens
  _atom_site_B_iso_or_equiv
  _atom_site_occupancy
   Li  Li1  1  0.120863  0.632414  0.625000  0  .  1
   Li  Li2  1  0.121445  0.871445  0.375000  0  .  1
   Li  Li3  1  0.121445  0.871445  0.875000  0  .  1
   Li  Li4  1  0.378555  0.128555  0.375000  0  .  1
   Li  Li5  1  0.379137  0.367586  0.125000  0  .  1
   Li  Li6  1  0.378555  0.128555  0.875000  0  .  1
   Li  Li7  1  0.617586  0.129137  0.625000  0  .  1
   Li  Li8  1  0.629157  0.620843  0.125000  0  .  1
   Li  Li9  1  0.629067  0.620933  0.625000  0  .  1
   Li  Li10  1  0.870843  0.379157  0.625000  0  .  1
   Li  Li11  1  0.870933  0.379067  0.125000  0  .  1
   Li  Li12  1  0.882414  0.870863  0.125000  0  .  1
   Fe  Fe13  1  0.129761  0.120239  0.625000  0  .  1
   Fe  Fe14  1  0.119568  0.631753  0.125000  0  .  1
   Fe  Fe15  1  0.127848  0.122152  0.125000  0  .  1
   Fe  Fe16  1  0.125823  0.377214  0.375324  0  .  1
   Fe  Fe17  1  0.125823  0.377214  0.874676  0  .  1
   Fe  Fe18  1  0.380432  0.368247  0.625000  0  .  1
   Fe  Fe19  1  0.374177  0.622786  0.374676  0  .  1
   Fe  Fe20  1  0.374177  0.622786  0.875324  0  .  1
   Fe  Fe21  1  0.370239  0.879761  0.125000  0  .  1
   Fe  Fe22  1  0.372152  0.877848  0.625000  0  .  1
   Fe  Fe23  1  0.618247  0.130432  0.125000  0  .  1
   Fe  Fe24  1  0.631540  0.381540  0.375000  0  .  1
   Fe  Fe25  1  0.627214  0.875823  0.374676  0  .  1
   Fe  Fe26  1  0.631540  0.381540  0.875000  0  .  1
   Fe  Fe27  1  0.627214  0.875823  0.875324  0  .  1
   Fe  Fe28  1  0.872786  0.124177  0.375324  0  .  1
   Fe  Fe29  1  0.868460  0.618460  0.375000  0  .  1
   Fe  Fe30  1  0.868460  0.618460  0.875000  0  .  1
   Fe  Fe31  1  0.881753  0.869568  0.625000  0  .  1
   Fe  Fe32  1  0.872786  0.124177  0.874676  0  .  1
   O  O33  1  0.126071  0.363735  0.625000  0  .  1
   O  O34  1  0.124487  0.887605  0.625000  0  .  1
   O  O35  1  0.137605  0.874487  0.125000  0  .  1
   O  O36  1  0.112324  0.137676  0.380545  0  .  1
   O  O37  1  0.124784  0.377232  0.125000  0  .  1
   O  O38  1  0.112324  0.137676  0.869455  0  .  1
   O  O39  1  0.129019  0.613533  0.380844  0  .  1
   O  O40  1  0.129019  0.613533  0.869156  0  .  1
   O  O41  1  0.375216  0.622768  0.625000  0  .  1
   O  O42  1  0.373929  0.636265  0.125000  0  .  1
   O  O43  1  0.387676  0.862324  0.369455  0  .  1
   O  O44  1  0.370981  0.386467  0.369156  0  .  1
   O  O45  1  0.362395  0.125513  0.625000  0  .  1
   O  O46  1  0.387676  0.862324  0.880545  0  .  1
   O  O47  1  0.370981  0.386467  0.880844  0  .  1
   O  O48  1  0.375513  0.112395  0.125000  0  .  1
   O  O49  1  0.619988  0.630012  0.375410  0  .  1
   O  O50  1  0.624667  0.377044  0.125000  0  .  1
   O  O51  1  0.636467  0.120981  0.380844  0  .  1
   O  O52  1  0.627044  0.374667  0.625000  0  .  1
   O  O53  1  0.619988  0.630012  0.874590  0  .  1
   O  O54  1  0.636467  0.120981  0.869156  0  .  1
   O  O55  1  0.613735  0.876071  0.125000  0  .  1
   O  O56  1  0.627232  0.874784  0.625000  0  .  1
   O  O57  1  0.872768  0.125216  0.125000  0  .  1
   O  O58  1  0.886265  0.123929  0.625000  0  .  1
   O  O59  1  0.880012  0.369988  0.374590  0  .  1
   O  O60  1  0.872956  0.625333  0.125000  0  .  1
   O  O61  1  0.875333  0.622956  0.625000  0  .  1
   O  O62  1  0.880012  0.369988  0.875410  0  .  1
   O  O63  1  0.863533  0.879019  0.369156  0  .  1
   O  O64  1  0.863533  0.879019  0.880844  0  .  1
 
