#\#CIF1.1
##########################################################################
#               Crystallographic Information Format file 
#               Produced by PyCifRW module
# 
#  This is a CIF file.  CIF has been adopted by the International
#  Union of Crystallography as the standard for data archiving and 
#  transmission.
#
#  For information on this file format, follow the CIF links at
#  http://www.iucr.org
##########################################################################

data_Li3MnO4
_symmetry_space_group_name_H-M          'P 1'
_cell_length_a                          5.08478533465
_cell_length_b                          10.1926518863
_cell_length_c                          9.77349052171
_cell_angle_alpha                       16.2560597145
_cell_angle_beta                        29.4461625679
_cell_angle_gamma                       33.3314953072
_chemical_name_systematic               'Generated by pymatgen'
_symmetry_Int_Tables_number             1
_chemical_formula_structural            Li3MnO4
_chemical_formula_sum                   'Li3 Mn1 O4'
_cell_volume                            69.7065712848
_cell_formula_units_Z                   1
loop_
  _symmetry_equiv_pos_site_id
  _symmetry_equiv_pos_as_xyz
   1  'x, y, z'
 
loop_
  _atom_site_type_symbol
  _atom_site_label
  _atom_site_symmetry_multiplicity
  _atom_site_fract_x
  _atom_site_fract_y
  _atom_site_fract_z
  _atom_site_attached_hydrogens
  _atom_site_B_iso_or_equiv
  _atom_site_occupancy
   Li  Li1  1  0.990995  0.994824  0.009955  0  .  1
   Li  Li2  1  0.996920  0.513938  0.986242  0  .  1
   Li  Li3  1  0.502333  0.010306  0.488483  0  .  1
   Mn  Mn4  1  0.498821  0.503456  0.495871  0  .  1
   O  O5  1  0.280366  0.001509  0.219574  0  .  1
   O  O6  1  0.186924  0.504736  0.265395  0  .  1
   O  O7  1  0.720988  0.004780  0.770415  0  .  1
   O  O8  1  0.807774  0.502442  0.727839  0  .  1
 
