#\#CIF1.1
##########################################################################
#               Crystallographic Information Format file 
#               Produced by PyCifRW module
# 
#  This is a CIF file.  CIF has been adopted by the International
#  Union of Crystallography as the standard for data archiving and 
#  transmission.
#
#  For information on this file format, follow the CIF links at
#  http://www.iucr.org
##########################################################################

data_Li3Mn4O8
_symmetry_space_group_name_H-M          'P 1'
_cell_length_a                          5.78498877932
_cell_length_b                          5.81713193119
_cell_length_c                          6.08799715343
_cell_angle_alpha                       61.4611733245
_cell_angle_beta                        61.4529005333
_cell_angle_gamma                       89.9999953913
_chemical_name_systematic               'Generated by pymatgen'
_symmetry_Int_Tables_number             1
_chemical_formula_structural            Li3Mn4O8
_chemical_formula_sum                   'Li3 Mn4 O8'
_cell_volume                            151.021222531
_cell_formula_units_Z                   1
loop_
  _symmetry_equiv_pos_site_id
  _symmetry_equiv_pos_as_xyz
   1  'x, y, z'
 
loop_
  _atom_site_type_symbol
  _atom_site_label
  _atom_site_symmetry_multiplicity
  _atom_site_fract_x
  _atom_site_fract_y
  _atom_site_fract_z
  _atom_site_attached_hydrogens
  _atom_site_B_iso_or_equiv
  _atom_site_occupancy
   Li  Li1  1  0.500000  0.500000  0.500000  0  .  1
   Li  Li2  1  0.500000  0.000000  0.500000  0  .  1
   Li  Li3  1  0.500000  0.500000  0.000000  0  .  1
   Mn  Mn4  1  0.000000  0.500000  0.500000  0  .  1
   Mn  Mn5  1  0.000000  0.000000  0.500000  0  .  1
   Mn  Mn6  1  0.000000  0.000000  0.000000  0  .  1
   Mn  Mn7  1  0.500000  0.000000  0.000000  0  .  1
   O  O8  1  0.257144  0.779402  0.994673  0  .  1
   O  O9  1  0.257144  0.225925  0.994673  0  .  1
   O  O10  1  0.266162  0.781591  0.436818  0  .  1
   O  O11  1  0.229685  0.255927  0.488146  0  .  1
   O  O12  1  0.770315  0.744073  0.511854  0  .  1
   O  O13  1  0.733838  0.218409  0.563182  0  .  1
   O  O14  1  0.742856  0.774075  0.005327  0  .  1
   O  O15  1  0.742856  0.220598  0.005327  0  .  1
 
