#\#CIF1.1
##########################################################################
#               Crystallographic Information Format file 
#               Produced by PyCifRW module
# 
#  This is a CIF file.  CIF has been adopted by the International
#  Union of Crystallography as the standard for data archiving and 
#  transmission.
#
#  For information on this file format, follow the CIF links at
#  http://www.iucr.org
##########################################################################

data_Li3Ni5O8
_symmetry_space_group_name_H-M          'P 1'
_cell_length_a                          5.84059918689
_cell_length_b                          5.8405992388
_cell_length_c                          5.85781700491
_cell_angle_alpha                       90.0000053381
_cell_angle_beta                        60.0971833777
_cell_angle_gamma                       60.0000026896
_chemical_name_systematic               'Generated by pymatgen'
_symmetry_Int_Tables_number             1
_chemical_formula_structural            Li3Ni5O8
_chemical_formula_sum                   'Li3 Ni5 O8'
_cell_volume                            141.505069319
_cell_formula_units_Z                   1
loop_
  _symmetry_equiv_pos_site_id
  _symmetry_equiv_pos_as_xyz
   1  'x, y, z'
 
loop_
  _atom_site_type_symbol
  _atom_site_label
  _atom_site_symmetry_multiplicity
  _atom_site_fract_x
  _atom_site_fract_y
  _atom_site_fract_z
  _atom_site_attached_hydrogens
  _atom_site_B_iso_or_equiv
  _atom_site_occupancy
   Li  Li1  1  0.000000  0.000000  0.500000  0  .  1
   Li  Li2  1  0.500000  0.000000  0.500000  0  .  1
   Li  Li3  1  0.500000  0.500000  0.500000  0  .  1
   Ni  Ni4  1  0.000000  0.500000  0.500000  0  .  1
   Ni  Ni5  1  0.000000  0.000000  0.000000  0  .  1
   Ni  Ni6  1  0.500000  0.000000  0.000000  0  .  1
   Ni  Ni7  1  0.000000  0.500000  0.000000  0  .  1
   Ni  Ni8  1  0.500000  0.500000  0.000000  0  .  1
   O  O9  1  0.476427  0.261787  0.785360  0  .  1
   O  O10  1  0.992484  0.257463  0.757569  0  .  1
   O  O11  1  0.499894  0.750053  0.757569  0  .  1
   O  O12  1  0.992484  0.750053  0.757569  0  .  1
   O  O13  1  0.007516  0.249947  0.242431  0  .  1
   O  O14  1  0.500106  0.249947  0.242431  0  .  1
   O  O15  1  0.007516  0.742537  0.242431  0  .  1
   O  O16  1  0.523573  0.738213  0.214640  0  .  1
 
