#\#CIF1.1
##########################################################################
#               Crystallographic Information Format file 
#               Produced by PyCifRW module
# 
#  This is a CIF file.  CIF has been adopted by the International
#  Union of Crystallography as the standard for data archiving and 
#  transmission.
#
#  For information on this file format, follow the CIF links at
#  http://www.iucr.org
##########################################################################

data_Li3TiS3
_symmetry_space_group_name_H-M          'P 1'
_cell_length_a                          6.89982749158
_cell_length_b                          6.97071144882
_cell_length_c                          6.95270303724
_cell_angle_alpha                       113.236880259
_cell_angle_beta                        111.584159474
_cell_angle_gamma                       111.985189591
_chemical_name_systematic               'Generated by pymatgen'
_symmetry_Int_Tables_number             1
_chemical_formula_structural            Li3TiS3
_chemical_formula_sum                   'Li6 Ti2 S6'
_cell_volume                            226.851362986
_cell_formula_units_Z                   2
loop_
  _symmetry_equiv_pos_site_id
  _symmetry_equiv_pos_as_xyz
   1  'x, y, z'
 
loop_
  _atom_site_type_symbol
  _atom_site_label
  _atom_site_symmetry_multiplicity
  _atom_site_fract_x
  _atom_site_fract_y
  _atom_site_fract_z
  _atom_site_attached_hydrogens
  _atom_site_B_iso_or_equiv
  _atom_site_occupancy
   Li  Li1  1  0.303981  0.852812  0.402483  0  .  1
   Li  Li2  1  0.352142  0.810542  0.891845  0  .  1
   Li  Li3  1  0.804244  0.901739  0.353150  0  .  1
   Li  Li4  1  0.399076  0.310600  0.853514  0  .  1
   Li  Li5  1  0.852345  0.391826  0.309179  0  .  1
   Li  Li6  1  0.900825  0.353750  0.809216  0  .  1
   Ti  Ti7  1  0.603372  0.600748  0.601123  0  .  1
   Ti  Ti8  1  0.102914  0.100357  0.100697  0  .  1
   S  S9  1  0.027870  0.850487  0.668661  0  .  1
   S  S10  1  0.351061  0.527102  0.178998  0  .  1
   S  S11  1  0.177613  0.353779  0.532822  0  .  1
   S  S12  1  0.850401  0.676987  0.026345  0  .  1
   S  S13  1  0.526991  0.168922  0.350347  0  .  1
   S  S14  1  0.679047  0.032232  0.853503  0  .  1
 
