#\#CIF1.1
##########################################################################
#               Crystallographic Information Format file 
#               Produced by PyCifRW module
# 
#  This is a CIF file.  CIF has been adopted by the International
#  Union of Crystallography as the standard for data archiving and 
#  transmission.
#
#  For information on this file format, follow the CIF links at
#  http://www.iucr.org
##########################################################################

data_Li3Ti4O8
_symmetry_space_group_name_H-M          'P 1'
_cell_length_a                          5.98489723033
_cell_length_b                          5.94278678867
_cell_length_c                          5.9864174464
_cell_angle_alpha                       90.0176305855
_cell_angle_beta                        59.6059495228
_cell_angle_gamma                       60.215492727
_chemical_name_systematic               'Generated by pymatgen'
_symmetry_Int_Tables_number             1
_chemical_formula_structural            Li3Ti4O8
_chemical_formula_sum                   'Li3 Ti4 O8'
_cell_volume                            150.121403187
_cell_formula_units_Z                   1
loop_
  _symmetry_equiv_pos_site_id
  _symmetry_equiv_pos_as_xyz
   1  'x, y, z'
 
loop_
  _atom_site_type_symbol
  _atom_site_label
  _atom_site_symmetry_multiplicity
  _atom_site_fract_x
  _atom_site_fract_y
  _atom_site_fract_z
  _atom_site_attached_hydrogens
  _atom_site_B_iso_or_equiv
  _atom_site_occupancy
   Li  Li1  1  0.500000  0.500000  0.000000  0  .  1
   Li  Li2  1  0.000000  0.500000  0.500000  0  .  1
   Li  Li3  1  0.000000  0.000000  0.500000  0  .  1
   Ti  Ti4  1  0.500000  0.000000  0.500000  0  .  1
   Ti  Ti5  1  0.500000  0.000000  0.000000  0  .  1
   Ti  Ti6  1  0.000000  0.500000  0.000000  0  .  1
   Ti  Ti7  1  0.000000  0.000000  0.000000  0  .  1
   O  O8  1  0.975082  0.762157  0.777604  0  .  1
   O  O9  1  0.989076  0.755850  0.244970  0  .  1
   O  O10  1  0.484476  0.777806  0.762242  0  .  1
   O  O11  1  0.515355  0.762222  0.237277  0  .  1
   O  O12  1  0.484645  0.237778  0.762723  0  .  1
   O  O13  1  0.515524  0.222194  0.237758  0  .  1
   O  O14  1  0.010924  0.244150  0.755030  0  .  1
   O  O15  1  0.024918  0.237843  0.222396  0  .  1
 
