#\#CIF1.1
##########################################################################
#               Crystallographic Information Format file 
#               Produced by PyCifRW module
# 
#  This is a CIF file.  CIF has been adopted by the International
#  Union of Crystallography as the standard for data archiving and 
#  transmission.
#
#  For information on this file format, follow the CIF links at
#  http://www.iucr.org
##########################################################################

data_Li3V4O8
_symmetry_space_group_name_H-M          'P 1'
_cell_length_a                          6.10810579541
_cell_length_b                          5.91977878641
_cell_length_c                          5.91977891
_cell_angle_alpha                       60.0000051618
_cell_angle_beta                        61.0147946865
_cell_angle_gamma                       61.0147949513
_chemical_name_systematic               'Generated by pymatgen'
_symmetry_Int_Tables_number             1
_chemical_formula_structural            Li3V4O8
_chemical_formula_sum                   'Li3 V4 O8'
_cell_volume                            153.637216902
_cell_formula_units_Z                   1
loop_
  _symmetry_equiv_pos_site_id
  _symmetry_equiv_pos_as_xyz
   1  'x, y, z'
 
loop_
  _atom_site_type_symbol
  _atom_site_label
  _atom_site_symmetry_multiplicity
  _atom_site_fract_x
  _atom_site_fract_y
  _atom_site_fract_z
  _atom_site_attached_hydrogens
  _atom_site_B_iso_or_equiv
  _atom_site_occupancy
   Li  Li1  1  0.063809  0.145397  0.145397  0  .  1
   Li  Li2  1  0.500000  0.000000  0.000000  0  .  1
   Li  Li3  1  0.936191  0.854603  0.854603  0  .  1
   V  V4  1  0.500000  0.000000  0.500000  0  .  1
   V  V5  1  0.500000  0.500000  0.500000  0  .  1
   V  V6  1  0.500000  0.500000  0.000000  0  .  1
   V  V7  1  0.000000  0.500000  0.500000  0  .  1
   O  O8  1  0.266693  0.253758  0.253758  0  .  1
   O  O9  1  0.266693  0.253758  0.725791  0  .  1
   O  O10  1  0.266693  0.725791  0.253758  0  .  1
   O  O11  1  0.700793  0.266402  0.266402  0  .  1
   O  O12  1  0.299207  0.733598  0.733598  0  .  1
   O  O13  1  0.733307  0.746242  0.274209  0  .  1
   O  O14  1  0.733307  0.274209  0.746242  0  .  1
   O  O15  1  0.733307  0.746242  0.746242  0  .  1
 
