#\#CIF1.1
##########################################################################
#               Crystallographic Information Format file 
#               Produced by PyCifRW module
# 
#  This is a CIF file.  CIF has been adopted by the International
#  Union of Crystallography as the standard for data archiving and 
#  transmission.
#
#  For information on this file format, follow the CIF links at
#  http://www.iucr.org
##########################################################################

data_Li3V5O10
_symmetry_space_group_name_H-M          'P 1'
_cell_length_a                          5.2010530174
_cell_length_b                          5.11906879357
_cell_length_c                          8.05940185119
_cell_angle_alpha                       111.353551704
_cell_angle_beta                        98.8983025032
_cell_angle_gamma                       100.743312053
_chemical_name_systematic               'Generated by pymatgen'
_symmetry_Int_Tables_number             1
_chemical_formula_structural            Li3V5O10
_chemical_formula_sum                   'Li3 V5 O10'
_cell_volume                            190.448326774
_cell_formula_units_Z                   1
loop_
  _symmetry_equiv_pos_site_id
  _symmetry_equiv_pos_as_xyz
   1  'x, y, z'
 
loop_
  _atom_site_type_symbol
  _atom_site_label
  _atom_site_symmetry_multiplicity
  _atom_site_fract_x
  _atom_site_fract_y
  _atom_site_fract_z
  _atom_site_attached_hydrogens
  _atom_site_B_iso_or_equiv
  _atom_site_occupancy
   Li  Li1  1  0.212700  0.914255  0.405883  0  .  1
   Li  Li2  1  0.500000  0.500000  0.500000  0  .  1
   Li  Li3  1  0.787300  0.085745  0.594117  0  .  1
   V  V4  1  0.116427  0.710566  0.688681  0  .  1
   V  V5  1  0.000000  0.500000  0.000000  0  .  1
   V  V6  1  0.686422  0.870590  0.897140  0  .  1
   V  V7  1  0.313578  0.129410  0.102860  0  .  1
   V  V8  1  0.883573  0.289434  0.311319  0  .  1
   O  O9  1  0.036981  0.091553  0.860610  0  .  1
   O  O10  1  0.118126  0.311035  0.524299  0  .  1
   O  O11  1  0.324159  0.727945  0.937700  0  .  1
   O  O12  1  0.193150  0.478249  0.233042  0  .  1
   O  O13  1  0.444266  0.867661  0.665563  0  .  1
   O  O14  1  0.555734  0.132339  0.334437  0  .  1
   O  O15  1  0.806850  0.521751  0.766958  0  .  1
   O  O16  1  0.675841  0.272055  0.062300  0  .  1
   O  O17  1  0.881874  0.688965  0.475701  0  .  1
   O  O18  1  0.963019  0.908447  0.139390  0  .  1
 
