#\#CIF1.1
##########################################################################
#               Crystallographic Information Format file 
#               Produced by PyCifRW module
# 
#  This is a CIF file.  CIF has been adopted by the International
#  Union of Crystallography as the standard for data archiving and 
#  transmission.
#
#  For information on this file format, follow the CIF links at
#  http://www.iucr.org
##########################################################################

data_Li3V5O14
_symmetry_space_group_name_H-M          'P 1'
_cell_length_a                          8.77107451993
_cell_length_b                          8.77050945544
_cell_length_c                          4.89228140997
_cell_angle_alpha                       90.0035003664
_cell_angle_beta                        89.9925218672
_cell_angle_gamma                       120.000780902
_chemical_name_systematic               'Generated by pymatgen'
_symmetry_Int_Tables_number             1
_chemical_formula_structural            Li3V5O14
_chemical_formula_sum                   'Li3 V5 O14'
_cell_volume                            325.923940707
_cell_formula_units_Z                   1
loop_
  _symmetry_equiv_pos_site_id
  _symmetry_equiv_pos_as_xyz
   1  'x, y, z'
 
loop_
  _atom_site_type_symbol
  _atom_site_label
  _atom_site_symmetry_multiplicity
  _atom_site_fract_x
  _atom_site_fract_y
  _atom_site_fract_z
  _atom_site_attached_hydrogens
  _atom_site_B_iso_or_equiv
  _atom_site_occupancy
   Li  Li1  1  0.000304  0.617973  0.165589  0  .  1
   Li  Li2  1  0.382287  0.381978  0.165571  0  .  1
   Li  Li3  1  0.617888  0.999989  0.165528  0  .  1
   V  V4  1  0.999978  0.224706  0.436190  0  .  1
   V  V5  1  0.333330  0.666691  0.461778  0  .  1
   V  V6  1  0.224640  0.999994  0.436209  0  .  1
   V  V7  1  0.775294  0.775308  0.436226  0  .  1
   V  V8  1  0.666629  0.333315  0.461755  0  .  1
   O  O9  1  0.999974  0.825005  0.334796  0  .  1
   O  O10  1  0.999943  0.225950  0.767654  0  .  1
   O  O11  1  0.295670  0.832723  0.326835  0  .  1
   O  O12  1  0.167225  0.463019  0.326888  0  .  1
   O  O13  1  0.333316  0.666722  0.797844  0  .  1
   O  O14  1  0.174943  0.174971  0.334775  0  .  1
   O  O15  1  0.537024  0.704354  0.326863  0  .  1
   O  O16  1  0.225877  0.999994  0.767677  0  .  1
   O  O17  1  0.774037  0.774080  0.767698  0  .  1
   O  O18  1  0.462937  0.167287  0.326824  0  .  1
   O  O19  1  0.704194  0.536993  0.326904  0  .  1
   O  O20  1  0.666586  0.333275  0.797820  0  .  1
   O  O21  1  0.832678  0.295673  0.326812  0  .  1
   O  O22  1  0.825046  0.000001  0.334765  0  .  1
 
