#\#CIF1.1
##########################################################################
#               Crystallographic Information Format file 
#               Produced by PyCifRW module
# 
#  This is a CIF file.  CIF has been adopted by the International
#  Union of Crystallography as the standard for data archiving and 
#  transmission.
#
#  For information on this file format, follow the CIF links at
#  http://www.iucr.org
##########################################################################

data_Li3V6O13
_symmetry_space_group_name_H-M          'P 1'
_cell_length_a                          4.02457887292
_cell_length_b                          6.33754614626
_cell_length_c                          10.3114904792
_cell_angle_alpha                       100.094475393
_cell_angle_beta                        90.0367773878
_cell_angle_gamma                       108.485893881
_chemical_name_systematic               'Generated by pymatgen'
_symmetry_Int_Tables_number             1
_chemical_formula_structural            Li3V6O13
_chemical_formula_sum                   'Li3 V6 O13'
_cell_volume                            245.127148201
_cell_formula_units_Z                   1
loop_
  _symmetry_equiv_pos_site_id
  _symmetry_equiv_pos_as_xyz
   1  'x, y, z'
 
loop_
  _atom_site_type_symbol
  _atom_site_label
  _atom_site_symmetry_multiplicity
  _atom_site_fract_x
  _atom_site_fract_y
  _atom_site_fract_z
  _atom_site_attached_hydrogens
  _atom_site_B_iso_or_equiv
  _atom_site_occupancy
   V  V1  1  0.339809  0.676627  0.002085  0  .  1
   V  V2  1  0.660398  0.314486  0.997535  0  .  1
   V  V3  1  0.402523  0.804677  0.366010  0  .  1
   V  V4  1  0.598007  0.196129  0.633426  0  .  1
   V  V5  1  0.720083  0.440073  0.364194  0  .  1
   V  V6  1  0.280446  0.561236  0.636442  0  .  1
   O  O7  1  0.173614  0.346227  -0.000036  0  .  1
   O  O8  1  0.817067  0.634354  0.999725  0  .  1
   O  O9  1  0.888921  0.778630  0.391110  0  .  1
   O  O10  1  0.111434  0.222548  0.608822  0  .  1
   O  O11  1  0.241083  0.482248  0.403633  0  .  1
   O  O12  1  0.759226  0.518908  0.596361  0  .  1
   O  O13  1  0.505675  0.010851  -0.000309  0  .  1
   O  O14  1  0.379555  0.765165  0.198060  0  .  1
   O  O15  1  0.620844  0.240351  0.800914  0  .  1
   O  O16  1  0.683294  0.366065  0.198876  0  .  1
   O  O17  1  0.316812  0.638736  0.802217  0  .  1
   O  O18  1  0.569665  0.139099  0.418700  0  .  1
   O  O19  1  0.430562  0.861633  0.581662  0  .  1
   Li  Li20  1  0.069628  0.138962  0.412848  0  .  1
   Li  Li21  1  0.930487  0.861398  0.587177  0  .  1
   Li  Li22  1  0.000867  0.001599  0.000547  0  .  1
 
