#\#CIF1.1
##########################################################################
#               Crystallographic Information Format file 
#               Produced by PyCifRW module
# 
#  This is a CIF file.  CIF has been adopted by the International
#  Union of Crystallography as the standard for data archiving and 
#  transmission.
#
#  For information on this file format, follow the CIF links at
#  http://www.iucr.org
##########################################################################

data_Li3V5O12
_symmetry_space_group_name_H-M          'P 1'
_cell_length_a                          5.0701040464
_cell_length_b                          5.03536458061
_cell_length_c                          9.16571925643
_cell_angle_alpha                       87.8288495598
_cell_angle_beta                        94.1824617055
_cell_angle_gamma                       67.5457621917
_chemical_name_systematic               'Generated by pymatgen'
_symmetry_Int_Tables_number             1
_chemical_formula_structural            Li3V5O12
_chemical_formula_sum                   'Li3 V5 O12'
_cell_volume                            215.13327977
_cell_formula_units_Z                   1
loop_
  _symmetry_equiv_pos_site_id
  _symmetry_equiv_pos_as_xyz
   1  'x, y, z'
 
loop_
  _atom_site_type_symbol
  _atom_site_label
  _atom_site_symmetry_multiplicity
  _atom_site_fract_x
  _atom_site_fract_y
  _atom_site_fract_z
  _atom_site_attached_hydrogens
  _atom_site_B_iso_or_equiv
  _atom_site_occupancy
   Li  Li1  1  0.151255  0.326916  0.687659  0  .  1
   Li  Li2  1  0.622860  0.146871  0.996013  0  .  1
   Li  Li3  1  0.944667  0.922390  0.752610  0  .  1
   V  V4  1  0.064865  0.070863  0.245623  0  .  1
   V  V5  1  0.009208  0.487772  0.981028  0  .  1
   V  V6  1  0.537140  0.985214  0.508507  0  .  1
   V  V7  1  0.443747  0.434151  0.269153  0  .  1
   V  V8  1  0.556484  0.582866  0.740707  0  .  1
   O  O9  1  0.212824  0.279896  0.389329  0  .  1
   O  O10  1  0.085292  0.762616  0.145259  0  .  1
   O  O11  1  0.301020  0.214733  0.120836  0  .  1
   O  O12  1  0.273913  0.528226  0.873306  0  .  1
   O  O13  1  0.556110  0.282947  0.639369  0  .  1
   O  O14  1  0.281027  0.917094  0.649066  0  .  1
   O  O15  1  0.432687  0.738522  0.366075  0  .  1
   O  O16  1  0.749865  0.101663  0.365704  0  .  1
   O  O17  1  0.701224  0.791481  0.898548  0  .  1
   O  O18  1  0.762760  0.383362  0.136883  0  .  1
   O  O19  1  0.916716  0.257467  0.865832  0  .  1
   O  O20  1  0.813486  0.682427  0.613975  0  .  1
 
