#\#CIF1.1
##########################################################################
#               Crystallographic Information Format file 
#               Produced by PyCifRW module
# 
#  This is a CIF file.  CIF has been adopted by the International
#  Union of Crystallography as the standard for data archiving and 
#  transmission.
#
#  For information on this file format, follow the CIF links at
#  http://www.iucr.org
##########################################################################

data_Li4(CuO2)3
_symmetry_space_group_name_H-M          'P 1'
_cell_length_a                          15.7335151744
_cell_length_b                          6.55128078952
_cell_length_c                          7.35346219393
_cell_angle_alpha                       110.702341213
_cell_angle_beta                        116.205889459
_cell_angle_gamma                       24.1200741169
_chemical_name_systematic               'Generated by pymatgen'
_symmetry_Int_Tables_number             1
_chemical_formula_structural            Li4(CuO2)3
_chemical_formula_sum                   'Li8 Cu6 O12'
_cell_volume                            275.354315067
_cell_formula_units_Z                   2
loop_
  _symmetry_equiv_pos_site_id
  _symmetry_equiv_pos_as_xyz
   1  'x, y, z'
 
loop_
  _atom_site_type_symbol
  _atom_site_label
  _atom_site_symmetry_multiplicity
  _atom_site_fract_x
  _atom_site_fract_y
  _atom_site_fract_z
  _atom_site_attached_hydrogens
  _atom_site_B_iso_or_equiv
  _atom_site_occupancy
   Li  Li1  1  0.977400  0.345743  0.867238  0  .  1
   Li  Li2  1  0.699457  0.623686  0.132762  0  .  1
   Li  Li3  1  0.637168  0.362832  0.859180  0  .  1
   Li  Li4  1  0.314662  0.056013  0.500000  0  .  1
   Li  Li5  1  0.300543  0.376314  0.867238  0  .  1
   Li  Li6  1  0.362832  0.637168  0.140820  0  .  1
   Li  Li7  1  0.022600  0.654257  0.132762  0  .  1
   Li  Li8  1  0.685338  0.943987  0.500000  0  .  1
   O  O9  1  0.592940  0.743588  0.825477  0  .  1
   O  O10  1  0.565975  0.434025  0.342003  0  .  1
   O  O11  1  0.726578  0.273422  0.153751  0  .  1
   O  O12  1  0.761023  0.587430  0.664325  0  .  1
   O  O13  1  0.890524  0.457929  0.335675  0  .  1
   O  O14  1  0.929468  0.734005  0.825477  0  .  1
   O  O15  1  0.070532  0.265995  0.174523  0  .  1
   O  O16  1  0.109476  0.542071  0.664325  0  .  1
   O  O17  1  0.238977  0.412570  0.335675  0  .  1
   O  O18  1  0.273422  0.726578  0.846249  0  .  1
   O  O19  1  0.407060  0.256412  0.174523  0  .  1
   O  O20  1  0.434025  0.565975  0.657997  0  .  1
   Cu  Cu21  1  0.817964  0.852490  0.257214  0  .  1
   Cu  Cu22  1  0.845204  0.154796  0.730889  0  .  1
   Cu  Cu23  1  0.488418  0.841129  0.257214  0  .  1
   Cu  Cu24  1  0.511582  0.158871  0.742786  0  .  1
   Cu  Cu25  1  0.154796  0.845204  0.269111  0  .  1
   Cu  Cu26  1  0.182036  0.147510  0.742786  0  .  1
 
