#\#CIF1.1
##########################################################################
#               Crystallographic Information Format file 
#               Produced by PyCifRW module
# 
#  This is a CIF file.  CIF has been adopted by the International
#  Union of Crystallography as the standard for data archiving and 
#  transmission.
#
#  For information on this file format, follow the CIF links at
#  http://www.iucr.org
##########################################################################

data_Li4(CoO2)7
_symmetry_space_group_name_H-M          'P 1'
_cell_length_a                          37.9152004875
_cell_length_b                          15.767364429
_cell_length_c                          10.4797281253
_cell_angle_alpha                       13.6072711396
_cell_angle_beta                        15.065098178
_cell_angle_gamma                       9.9485386493
_chemical_name_systematic               'Generated by pymatgen'
_symmetry_Int_Tables_number             1
_chemical_formula_structural            Li4(CoO2)7
_chemical_formula_sum                   'Li4 Co7 O14'
_cell_volume                            249.258699971
_cell_formula_units_Z                   1
loop_
  _symmetry_equiv_pos_site_id
  _symmetry_equiv_pos_as_xyz
   1  'x, y, z'
 
loop_
  _atom_site_type_symbol
  _atom_site_label
  _atom_site_symmetry_multiplicity
  _atom_site_fract_x
  _atom_site_fract_y
  _atom_site_fract_z
  _atom_site_attached_hydrogens
  _atom_site_B_iso_or_equiv
  _atom_site_occupancy
   Li  Li1  1  0.145910  0.022557  0.955056  0  .  1
   Li  Li2  1  0.041733  0.319502  0.400403  0  .  1
   Li  Li3  1  0.534205  0.672664  0.594417  0  .  1
   Li  Li4  1  0.663826  0.637589  0.690424  0  .  1
   Co  Co5  1  0.142970  0.497415  0.502605  0  .  1
   Co  Co6  1  0.286847  0.494863  0.504899  0  .  1
   Co  Co7  1  0.426522  0.508236  0.495398  0  .  1
   Co  Co8  1  0.572584  0.491924  0.496776  0  .  1
   Co  Co9  1  0.720096  0.487150  0.489506  0  .  1
   Co  Co10  1  0.856734  0.501455  0.497982  0  .  1
   Co  Co11  1  0.997079  0.508974  0.504057  0  .  1
   O  O12  1  0.075392  0.230000  0.234528  0  .  1
   O  O13  1  0.224557  0.214158  0.242483  0  .  1
   O  O14  1  0.365919  0.222653  0.230610  0  .  1
   O  O15  1  0.063600  0.773748  0.771385  0  .  1
   O  O16  1  0.515643  0.219131  0.208535  0  .  1
   O  O17  1  0.205570  0.785689  0.760168  0  .  1
   O  O18  1  0.652132  0.229410  0.213630  0  .  1
   O  O19  1  0.349451  0.764133  0.782016  0  .  1
   O  O20  1  0.780151  0.256806  0.226817  0  .  1
   O  O21  1  0.490478  0.771458  0.779774  0  .  1
   O  O22  1  0.932736  0.227569  0.242766  0  .  1
   O  O23  1  0.634410  0.781808  0.759319  0  .  1
   O  O24  1  0.785081  0.765866  0.753935  0  .  1
   O  O25  1  0.929231  0.740240  0.787509  0  .  1
 
