#\#CIF1.1
##########################################################################
#               Crystallographic Information Format file 
#               Produced by PyCifRW module
# 
#  This is a CIF file.  CIF has been adopted by the International
#  Union of Crystallography as the standard for data archiving and 
#  transmission.
#
#  For information on this file format, follow the CIF links at
#  http://www.iucr.org
##########################################################################

data_Li47Mn5As19
_symmetry_space_group_name_H-M          'P 1'
_cell_length_a                          4.3176290965
_cell_length_b                          4.31762895708
_cell_length_c                          82.1276706327
_cell_angle_alpha                       60.0395260872
_cell_angle_beta                        60.0395271584
_cell_angle_gamma                       59.9860302668
_chemical_name_systematic               'Generated by pymatgen'
_symmetry_Int_Tables_number             1
_chemical_formula_structural            Li47Mn5As19
_chemical_formula_sum                   'Li47 Mn5 As19'
_cell_volume                            1083.12464774
_cell_formula_units_Z                   1
loop_
  _symmetry_equiv_pos_site_id
  _symmetry_equiv_pos_as_xyz
   1  'x, y, z'
 
loop_
  _atom_site_type_symbol
  _atom_site_label
  _atom_site_symmetry_multiplicity
  _atom_site_fract_x
  _atom_site_fract_y
  _atom_site_fract_z
  _atom_site_attached_hydrogens
  _atom_site_B_iso_or_equiv
  _atom_site_occupancy
   As  As1  1  0.008852  0.008852  0.998601  0  .  1
   As  As2  1  0.986625  0.986625  0.054684  0  .  1
   As  As3  1  0.994077  0.994077  0.106126  0  .  1
   As  As4  1  -0.003765  -0.003765  0.158438  0  .  1
   As  As5  1  1.001554  1.001554  0.210235  0  .  1
   As  As6  1  1.000654  1.000654  0.262997  0  .  1
   As  As7  1  1.001173  1.001173  0.315575  0  .  1
   As  As8  1  0.998102  0.998102  0.368783  0  .  1
   As  As9  1  0.997540  0.997540  0.421493  0  .  1
   As  As10  1  0.995877  0.995877  0.474298  0  .  1
   As  As11  1  0.997699  0.997699  0.526671  0  .  1
   As  As12  1  1.002807  1.002807  0.631082  0  .  1
   As  As13  1  1.002598  1.002598  0.578481  0  .  1
   As  As14  1  0.003984  0.003984  0.683597  0  .  1
   As  As15  1  0.004380  0.004380  0.736224  0  .  1
   As  As16  1  0.004378  0.004378  0.788849  0  .  1
   As  As17  1  1.004715  1.004715  0.841436  0  .  1
   As  As18  1  1.005032  1.005032  0.893976  0  .  1
   As  As19  1  0.004433  0.004433  0.946622  0  .  1
   Li  Li20  1  0.242962  0.242962  0.014235  0  .  1
   Li  Li21  1  0.762022  0.762022  0.037525  0  .  1
   Li  Li22  1  0.744532  0.744532  0.092950  0  .  1
   Li  Li23  1  0.744526  0.744526  0.145560  0  .  1
   Li  Li24  1  0.272473  0.272473  0.272715  0  .  1
   Li  Li25  1  0.747775  0.747775  0.197762  0  .  1
   Li  Li26  1  0.253796  0.253796  0.328354  0  .  1
   Li  Li27  1  0.757525  0.757525  0.248802  0  .  1
   Li  Li28  1  0.509377  0.509377  0.287989  0  .  1
   Li  Li29  1  0.251782  0.251782  0.381356  0  .  1
   Li  Li30  1  0.753259  0.753259  0.302095  0  .  1
   Li  Li31  1  0.506396  0.506396  0.341107  0  .  1
   Li  Li32  1  0.505424  0.505424  0.393917  0  .  1
   Li  Li33  1  0.752146  0.752146  0.354944  0  .  1
   Li  Li34  1  0.251017  0.251017  0.434092  0  .  1
   Li  Li35  1  0.751027  0.751027  0.407769  0  .  1
   Li  Li36  1  0.504998  0.504998  0.446596  0  .  1
   Li  Li37  1  0.251313  0.251313  0.486630  0  .  1
   Li  Li38  1  0.513219  0.513219  0.497888  0  .  1
   Li  Li39  1  0.752805  0.752805  0.460077  0  .  1
   Li  Li40  1  0.485087  0.485087  0.554931  0  .  1
   Li  Li41  1  0.246418  0.246418  0.592636  0  .  1
   Li  Li42  1  0.743953  0.743953  0.514100  0  .  1
   Li  Li43  1  0.250052  0.250052  0.644714  0  .  1
   Li  Li44  1  0.497326  0.497326  0.605668  0  .  1
   Li  Li45  1  0.752419  0.752419  0.565366  0  .  1
   Li  Li46  1  0.495326  0.495326  0.658629  0  .  1
   Li  Li47  1  0.250114  0.250114  0.697377  0  .  1
   Li  Li48  1  0.748604  0.748604  0.618592  0  .  1
   Li  Li49  1  0.749456  0.749456  0.671124  0  .  1
   Li  Li50  1  0.495808  0.495808  0.711205  0  .  1
   Li  Li51  1  0.250390  0.250390  0.749989  0  .  1
   Li  Li52  1  0.495794  0.495794  0.763840  0  .  1
   Li  Li53  1  0.749950  0.749950  0.723719  0  .  1
   Li  Li54  1  0.250432  0.250432  0.802613  0  .  1
   Li  Li55  1  0.495989  0.495989  0.816439  0  .  1
   Li  Li56  1  0.250815  0.250815  0.855184  0  .  1
   Li  Li57  1  0.750052  0.750052  0.776334  0  .  1
   Li  Li58  1  0.750172  0.750172  0.828950  0  .  1
   Li  Li59  1  0.250895  0.250895  0.907776  0  .  1
   Li  Li60  1  0.495964  0.495964  0.869056  0  .  1
   Li  Li61  1  0.495951  0.495951  0.921681  0  .  1
   Li  Li62  1  0.250546  0.250546  0.960419  0  .  1
   Li  Li63  1  0.750544  0.750544  0.881524  0  .  1
   Li  Li64  1  0.750202  0.750202  0.934221  0  .  1
   Li  Li65  1  0.491325  0.491325  0.975080  0  .  1
   Li  Li66  1  0.735349  0.735349  0.989168  0  .  1
   Mn  Mn67  1  0.247140  0.247140  0.066280  0  .  1
   Mn  Mn68  1  0.244615  0.244615  0.119262  0  .  1
   Mn  Mn69  1  0.241928  0.241928  0.172319  0  .  1
   Mn  Mn70  1  0.244088  0.244088  0.224630  0  .  1
   Mn  Mn71  1  0.254205  0.254205  0.538755  0  .  1
 
