#\#CIF1.1
##########################################################################
#               Crystallographic Information Format file 
#               Produced by PyCifRW module
# 
#  This is a CIF file.  CIF has been adopted by the International
#  Union of Crystallography as the standard for data archiving and 
#  transmission.
#
#  For information on this file format, follow the CIF links at
#  http://www.iucr.org
##########################################################################

data_Li4CrS4
_symmetry_space_group_name_H-M          'P 1'
_cell_length_a                          14.2003288
_cell_length_b                          7.75691502
_cell_length_c                          6.1118343
_cell_angle_alpha                       90.0
_cell_angle_beta                        90.0
_cell_angle_gamma                       90.0
_chemical_name_systematic               'Generated by pymatgen'
_symmetry_Int_Tables_number             1
_chemical_formula_structural            Li4CrS4
_chemical_formula_sum                   'Li16 Cr4 S16'
_cell_volume                            673.223093869
_cell_formula_units_Z                   4
loop_
  _symmetry_equiv_pos_site_id
  _symmetry_equiv_pos_as_xyz
   1  'x, y, z'
 
loop_
  _atom_site_type_symbol
  _atom_site_label
  _atom_site_symmetry_multiplicity
  _atom_site_fract_x
  _atom_site_fract_y
  _atom_site_fract_z
  _atom_site_attached_hydrogens
  _atom_site_B_iso_or_equiv
  _atom_site_occupancy
   Li  Li1  1  0.000000  0.000000  0.500000  0  .  1
   Li  Li2  1  0.000000  0.500000  0.500000  0  .  1
   Li  Li3  1  0.086377  0.250000  0.869619  0  .  1
   Li  Li4  1  0.177676  0.498540  0.303140  0  .  1
   Li  Li5  1  0.177676  0.001460  0.303140  0  .  1
   Li  Li6  1  0.322325  0.998540  0.803140  0  .  1
   Li  Li7  1  0.322325  0.501460  0.803140  0  .  1
   Li  Li8  1  0.413623  0.750000  0.369619  0  .  1
   Li  Li9  1  0.500000  0.000000  0.000000  0  .  1
   Li  Li10  1  0.500000  0.500000  0.000000  0  .  1
   Li  Li11  1  0.586377  0.250000  0.630381  0  .  1
   Li  Li12  1  0.677675  0.498540  0.196860  0  .  1
   Li  Li13  1  0.677675  0.001460  0.196860  0  .  1
   Li  Li14  1  0.822325  0.998540  0.696860  0  .  1
   Li  Li15  1  0.822325  0.501460  0.696860  0  .  1
   Li  Li16  1  0.913623  0.750000  0.130381  0  .  1
   Cr  Cr17  1  0.087398  0.750000  0.847795  0  .  1
   Cr  Cr18  1  0.412602  0.250000  0.347795  0  .  1
   Cr  Cr19  1  0.587398  0.750000  0.652205  0  .  1
   Cr  Cr20  1  0.912602  0.250000  0.152205  0  .  1
   S  S21  1  0.060468  0.250000  0.267107  0  .  1
   S  S22  1  0.083738  0.750000  0.205623  0  .  1
   S  S23  1  0.155492  0.516452  0.718741  0  .  1
   S  S24  1  0.155492  0.983548  0.718741  0  .  1
   S  S25  1  0.344508  0.016452  0.218741  0  .  1
   S  S26  1  0.344508  0.483548  0.218741  0  .  1
   S  S27  1  0.416262  0.250000  0.705623  0  .  1
   S  S28  1  0.439532  0.750000  0.767107  0  .  1
   S  S29  1  0.560468  0.250000  0.232893  0  .  1
   S  S30  1  0.583738  0.750000  0.294377  0  .  1
   S  S31  1  0.655492  0.516452  0.781259  0  .  1
   S  S32  1  0.655492  0.983548  0.781259  0  .  1
   S  S33  1  0.844508  0.016452  0.281259  0  .  1
   S  S34  1  0.844508  0.483548  0.281259  0  .  1
   S  S35  1  0.916262  0.250000  0.794377  0  .  1
   S  S36  1  0.939532  0.750000  0.732893  0  .  1
 
