#\#CIF1.1
##########################################################################
#               Crystallographic Information Format file 
#               Produced by PyCifRW module
# 
#  This is a CIF file.  CIF has been adopted by the International
#  Union of Crystallography as the standard for data archiving and 
#  transmission.
#
#  For information on this file format, follow the CIF links at
#  http://www.iucr.org
##########################################################################

data_Li4Co13O28
_symmetry_space_group_name_H-M          'P 1'
_cell_length_a                          8.22592540637
_cell_length_b                          8.51550195228
_cell_length_c                          7.44741164703
_cell_angle_alpha                       104.532786032
_cell_angle_beta                        105.473537644
_cell_angle_gamma                       100.708361625
_chemical_name_systematic               'Generated by pymatgen'
_symmetry_Int_Tables_number             1
_chemical_formula_structural            Li4Co13O28
_chemical_formula_sum                   'Li4 Co13 O28'
_cell_volume                            468.477631281
_cell_formula_units_Z                   1
loop_
  _symmetry_equiv_pos_site_id
  _symmetry_equiv_pos_as_xyz
   1  'x, y, z'
 
loop_
  _atom_site_type_symbol
  _atom_site_label
  _atom_site_symmetry_multiplicity
  _atom_site_fract_x
  _atom_site_fract_y
  _atom_site_fract_z
  _atom_site_attached_hydrogens
  _atom_site_B_iso_or_equiv
  _atom_site_occupancy
   Li  Li1  1  0.146282  0.328667  0.197909  0  .  1
   Li  Li2  1  0.494681  0.010118  0.998478  0  .  1
   Li  Li3  1  0.864661  0.652716  0.778028  0  .  1
   Li  Li4  1  0.732814  0.793703  0.080910  0  .  1
   Co  Co5  1  0.140221  0.862652  0.717528  0  .  1
   Co  Co6  1  0.076837  0.936599  0.356341  0  .  1
   Co  Co7  1  0.209028  0.790495  0.071681  0  .  1
   Co  Co8  1  0.348055  0.636138  0.778598  0  .  1
   Co  Co9  1  0.294435  0.721621  0.430804  0  .  1
   Co  Co10  1  0.431268  0.574052  0.144265  0  .  1
   Co  Co11  1  0.501268  0.501274  0.501002  0  .  1
   Co  Co12  1  0.562796  0.420829  0.852773  0  .  1
   Co  Co13  1  0.705467  0.277645  0.568940  0  .  1
   Co  Co14  1  0.653288  0.364442  0.221084  0  .  1
   Co  Co15  1  0.787290  0.206438  0.929255  0  .  1
   Co  Co16  1  0.924684  0.068092  0.646253  0  .  1
   Co  Co17  1  0.861954  0.142520  0.285768  0  .  1
   O  O18  1  0.996141  0.199230  0.905423  0  .  1
   O  O19  1  0.126629  0.665172  0.796088  0  .  1
   O  O20  1  0.074832  0.745191  0.443387  0  .  1
   O  O21  1  0.242964  0.967448  0.980533  0  .  1
   O  O22  1  0.080079  0.133151  0.296302  0  .  1
   O  O23  1  0.365690  0.833997  0.706034  0  .  1
   O  O24  1  0.148141  0.049682  0.631457  0  .  1
   O  O25  1  0.297306  0.910426  0.342501  0  .  1
   O  O26  1  0.277481  0.524182  0.507200  0  .  1
   O  O27  1  0.212848  0.596516  0.160855  0  .  1
   O  O28  1  0.345210  0.451427  0.870740  0  .  1
   O  O29  1  0.434702  0.763622  0.049991  0  .  1
   O  O30  1  0.510784  0.691773  0.412156  0  .  1
   O  O31  1  0.578466  0.619679  0.778542  0  .  1
   O  O32  1  0.425282  0.383971  0.229513  0  .  1
   O  O33  1  0.488419  0.308382  0.586158  0  .  1
   O  O34  1  0.565658  0.237411  0.951185  0  .  1
   O  O35  1  0.651825  0.552719  0.125165  0  .  1
   O  O36  1  0.784190  0.400768  0.839506  0  .  1
   O  O37  1  0.724740  0.477045  0.495218  0  .  1
   O  O38  1  0.702828  0.087507  0.655925  0  .  1
   O  O39  1  0.851781  0.947954  0.366826  0  .  1
   O  O40  1  0.635178  0.169270  0.295396  0  .  1
   O  O41  1  0.921603  0.867446  0.705568  0  .  1
   O  O42  1  0.753181  0.027755  0.024034  0  .  1
   O  O43  1  0.926251  0.255191  0.559807  0  .  1
   O  O44  1  0.871239  0.336487  0.202062  0  .  1
   O  O45  1  0.996743  0.797420  0.093477  0  .  1
 
