#\#CIF1.1
##########################################################################
#               Crystallographic Information Format file 
#               Produced by PyCifRW module
# 
#  This is a CIF file.  CIF has been adopted by the International
#  Union of Crystallography as the standard for data archiving and 
#  transmission.
#
#  For information on this file format, follow the CIF links at
#  http://www.iucr.org
##########################################################################

data_Li4Co5O12
_symmetry_space_group_name_H-M          'P 1'
_cell_length_a                          4.90013138848
_cell_length_b                          4.8829995142
_cell_length_c                          9.91153071631
_cell_angle_alpha                       85.3839453872
_cell_angle_beta                        99.5526014086
_cell_angle_gamma                       119.926081656
_chemical_name_systematic               'Generated by pymatgen'
_symmetry_Int_Tables_number             1
_chemical_formula_structural            Li4Co5O12
_chemical_formula_sum                   'Li4 Co5 O12'
_cell_volume                            202.685632676
_cell_formula_units_Z                   1
loop_
  _symmetry_equiv_pos_site_id
  _symmetry_equiv_pos_as_xyz
   1  'x, y, z'
 
loop_
  _atom_site_type_symbol
  _atom_site_label
  _atom_site_symmetry_multiplicity
  _atom_site_fract_x
  _atom_site_fract_y
  _atom_site_fract_z
  _atom_site_attached_hydrogens
  _atom_site_B_iso_or_equiv
  _atom_site_occupancy
   Li  Li1  1  0.346894  0.183399  0.009637  0  .  1
   Li  Li2  1  0.505785  0.505025  0.490000  0  .  1
   Li  Li3  1  0.836993  0.183803  0.489023  0  .  1
   Li  Li4  1  0.761953  0.506094  0.249010  0  .  1
   Co  Co5  1  0.073219  0.151808  0.251374  0  .  1
   Co  Co6  1  0.253530  0.508458  0.750767  0  .  1
   Co  Co7  1  0.586494  0.172093  0.750156  0  .  1
   Co  Co8  1  0.414466  0.825260  0.249119  0  .  1
   Co  Co9  1  0.920245  0.838045  0.751156  0  .  1
   O  O10  1  0.217127  0.178118  0.649439  0  .  1
   O  O11  1  0.427131  0.131153  0.356127  0  .  1
   O  O12  1  0.136684  0.484130  0.359218  0  .  1
   O  O13  1  0.698673  0.118720  0.146734  0  .  1
   O  O14  1  0.961003  0.174085  0.848103  0  .  1
   O  O15  1  0.344881  0.490422  0.151067  0  .  1
   O  O16  1  0.614177  0.504491  0.848666  0  .  1
   O  O17  1  0.079038  0.866587  0.146221  0  .  1
   O  O18  1  0.282718  0.841456  0.848311  0  .  1
   O  O19  1  0.881093  0.501562  0.647368  0  .  1
   O  O20  1  0.558732  0.835840  0.648724  0  .  1
   O  O21  1  0.777563  0.856251  0.359778  0  .  1
 
