#\#CIF1.1
##########################################################################
#               Crystallographic Information Format file 
#               Produced by PyCifRW module
# 
#  This is a CIF file.  CIF has been adopted by the International
#  Union of Crystallography as the standard for data archiving and 
#  transmission.
#
#  For information on this file format, follow the CIF links at
#  http://www.iucr.org
##########################################################################

data_Li4FeO3
_symmetry_space_group_name_H-M          'P 1'
_cell_length_a                          5.14754312885
_cell_length_b                          5.67570072716
_cell_length_c                          6.971057828
_cell_angle_alpha                       71.4666561693
_cell_angle_beta                        89.9621498642
_cell_angle_gamma                       62.9985147033
_chemical_name_systematic               'Generated by pymatgen'
_symmetry_Int_Tables_number             1
_chemical_formula_structural            Li4FeO3
_chemical_formula_sum                   'Li8 Fe2 O6'
_cell_volume                            169.548485113
_cell_formula_units_Z                   2
loop_
  _symmetry_equiv_pos_site_id
  _symmetry_equiv_pos_as_xyz
   1  'x, y, z'
 
loop_
  _atom_site_type_symbol
  _atom_site_label
  _atom_site_symmetry_multiplicity
  _atom_site_fract_x
  _atom_site_fract_y
  _atom_site_fract_z
  _atom_site_attached_hydrogens
  _atom_site_B_iso_or_equiv
  _atom_site_occupancy
   Li  Li1  1  0.964102  0.768717  0.933110  0  .  1
   Li  Li2  1  0.265880  0.769492  0.435518  0  .  1
   Li  Li3  1  0.876797  0.552378  0.641778  0  .  1
   Li  Li4  1  0.517231  0.401177  0.838138  0  .  1
   Li  Li5  1  0.566906  0.554642  0.141339  0  .  1
   Li  Li6  1  0.079138  0.403681  0.337361  0  .  1
   Li  Li7  1  0.714342  0.268590  0.527196  0  .  1
   Li  Li8  1  0.015592  0.268024  0.027937  0  .  1
   Fe  Fe9  1  0.340368  0.036370  0.749942  0  .  1
   Fe  Fe10  1  0.621827  0.037596  0.250451  0  .  1
   O  O11  1  0.670631  0.668469  0.860800  0  .  1
   O  O12  1  0.658572  0.669721  0.361163  0  .  1
   O  O13  1  0.299806  0.403191  0.592108  0  .  1
   O  O14  1  0.946683  0.129726  0.806278  0  .  1
   O  O15  1  0.295072  0.403683  0.091848  0  .  1
   O  O16  1  0.922079  0.130297  0.306560  0  .  1
 
