#\#CIF1.1
##########################################################################
#               Crystallographic Information Format file 
#               Produced by PyCifRW module
# 
#  This is a CIF file.  CIF has been adopted by the International
#  Union of Crystallography as the standard for data archiving and 
#  transmission.
#
#  For information on this file format, follow the CIF links at
#  http://www.iucr.org
##########################################################################

data_Li4Fe7O12
_symmetry_space_group_name_H-M          'P 1'
_cell_length_a                          5.18540802144
_cell_length_b                          9.01641346769
_cell_length_c                          9.83936416356
_cell_angle_alpha                       90.0000025985
_cell_angle_beta                        100.760982498
_cell_angle_gamma                       89.9999984502
_chemical_name_systematic               'Generated by pymatgen'
_symmetry_Int_Tables_number             1
_chemical_formula_structural            Li4Fe7O12
_chemical_formula_sum                   'Li8 Fe14 O24'
_cell_volume                            451.93773895
_cell_formula_units_Z                   2
loop_
  _symmetry_equiv_pos_site_id
  _symmetry_equiv_pos_as_xyz
   1  'x, y, z'
 
loop_
  _atom_site_type_symbol
  _atom_site_label
  _atom_site_symmetry_multiplicity
  _atom_site_fract_x
  _atom_site_fract_y
  _atom_site_fract_z
  _atom_site_attached_hydrogens
  _atom_site_B_iso_or_equiv
  _atom_site_occupancy
   Li  Li1  1  0.245718  0.083742  0.994428  0  .  1
   Li  Li2  1  0.758198  0.079818  0.508283  0  .  1
   Li  Li3  1  0.492685  0.417631  0.753158  0  .  1
   Li  Li4  1  0.753276  0.416625  0.505566  0  .  1
   Li  Li5  1  0.254282  0.583742  0.505572  0  .  1
   Li  Li6  1  0.741802  0.579818  0.991717  0  .  1
   Li  Li7  1  0.007315  0.917631  0.746842  0  .  1
   Li  Li8  1  0.746724  0.916625  0.994434  0  .  1
   Fe  Fe9  1  0.997192  0.079473  0.254067  0  .  1
   Fe  Fe10  1  0.011458  0.252267  0.757325  0  .  1
   Fe  Fe11  1  0.501070  0.076344  0.745648  0  .  1
   Fe  Fe12  1  0.260911  0.248541  0.507146  0  .  1
   Fe  Fe13  1  0.494998  0.252993  0.242392  0  .  1
   Fe  Fe14  1  0.007845  0.421701  0.246746  0  .  1
   Fe  Fe15  1  0.736686  0.258206  0.991502  0  .  1
   Fe  Fe16  1  0.998930  0.576344  0.754352  0  .  1
   Fe  Fe17  1  0.005002  0.752993  0.257608  0  .  1
   Fe  Fe18  1  0.502808  0.579473  0.245933  0  .  1
   Fe  Fe19  1  0.239089  0.748541  0.992854  0  .  1
   Fe  Fe20  1  0.488542  0.752267  0.742675  0  .  1
   Fe  Fe21  1  0.763314  0.758206  0.508498  0  .  1
   Fe  Fe22  1  0.492155  0.921701  0.253254  0  .  1
   O  O23  1  0.135458  0.102300  0.631658  0  .  1
   O  O24  1  0.361600  0.089368  0.365505  0  .  1
   O  O25  1  0.385146  0.233269  0.871063  0  .  1
   O  O26  1  0.094047  0.243707  0.131771  0  .  1
   O  O27  1  0.862100  0.098266  0.873230  0  .  1
   O  O28  1  0.637784  0.080233  0.129503  0  .  1
   O  O29  1  0.121397  0.409045  0.632050  0  .  1
   O  O30  1  0.616462  0.239789  0.622763  0  .  1
   O  O31  1  0.366801  0.418621  0.371981  0  .  1
   O  O32  1  0.899338  0.251212  0.371972  0  .  1
   O  O33  1  0.648902  0.419484  0.129256  0  .  1
   O  O34  1  0.860851  0.409413  0.864939  0  .  1
   O  O35  1  0.364542  0.602300  0.868342  0  .  1
   O  O36  1  0.138400  0.589368  0.134495  0  .  1
   O  O37  1  0.114854  0.733269  0.628937  0  .  1
   O  O38  1  0.637900  0.598266  0.626770  0  .  1
   O  O39  1  0.405953  0.743707  0.368229  0  .  1
   O  O40  1  0.862216  0.580233  0.370497  0  .  1
   O  O41  1  0.883538  0.739789  0.877237  0  .  1
   O  O42  1  0.600662  0.751212  0.128028  0  .  1
   O  O43  1  0.133199  0.918621  0.128019  0  .  1
   O  O44  1  0.378603  0.909045  0.867950  0  .  1
   O  O45  1  0.639149  0.909413  0.635061  0  .  1
   O  O46  1  0.851098  0.919484  0.370744  0  .  1
 
