#\#CIF1.1
##########################################################################
#               Crystallographic Information Format file 
#               Produced by PyCifRW module
# 
#  This is a CIF file.  CIF has been adopted by the International
#  Union of Crystallography as the standard for data archiving and 
#  transmission.
#
#  For information on this file format, follow the CIF links at
#  http://www.iucr.org
##########################################################################

data_Li4Mn7O16
_symmetry_space_group_name_H-M          'P 1'
_cell_length_a                          5.22130439761
_cell_length_b                          7.61520441189
_cell_length_c                          7.61520494418
_cell_angle_alpha                       97.9993693319
_cell_angle_beta                        77.8042390232
_cell_angle_gamma                       77.8042340675
_chemical_name_systematic               'Generated by pymatgen'
_symmetry_Int_Tables_number             1
_chemical_formula_structural            Li4Mn7O16
_chemical_formula_sum                   'Li4 Mn7 O16'
_cell_volume                            283.874350289
_cell_formula_units_Z                   1
loop_
  _symmetry_equiv_pos_site_id
  _symmetry_equiv_pos_as_xyz
   1  'x, y, z'
 
loop_
  _atom_site_type_symbol
  _atom_site_label
  _atom_site_symmetry_multiplicity
  _atom_site_fract_x
  _atom_site_fract_y
  _atom_site_fract_z
  _atom_site_attached_hydrogens
  _atom_site_B_iso_or_equiv
  _atom_site_occupancy
   Li  Li1  1  0.507959  0.251924  0.251924  0  .  1
   Li  Li2  1  0.500000  0.126896  0.873104  0  .  1
   Li  Li3  1  0.492041  0.748076  0.748076  0  .  1
   Li  Li4  1  0.500000  0.873104  0.126896  0  .  1
   Mn  Mn5  1  0.995149  0.121675  0.368811  0  .  1
   Mn  Mn6  1  0.000000  0.245079  0.754921  0  .  1
   Mn  Mn7  1  0.995149  0.368811  0.121675  0  .  1
   Mn  Mn8  1  0.000000  0.500000  0.500000  0  .  1
   Mn  Mn9  1  1.000000  0.754921  0.245079  0  .  1
   Mn  Mn10  1  0.004851  0.631189  0.878325  0  .  1
   Mn  Mn11  1  0.004851  0.878325  0.631189  0  .  1
   O  O12  1  0.216641  0.008209  0.739478  0  .  1
   O  O13  1  0.225084  0.147448  0.147448  0  .  1
   O  O14  1  0.196171  0.259484  0.504892  0  .  1
   O  O15  1  0.795892  0.115091  0.624828  0  .  1
   O  O16  1  0.783359  0.260522  0.991791  0  .  1
   O  O17  1  0.204108  0.375172  0.884909  0  .  1
   O  O18  1  0.791260  0.364720  0.364720  0  .  1
   O  O19  1  0.196171  0.504892  0.259484  0  .  1
   O  O20  1  0.208740  0.635280  0.635280  0  .  1
   O  O21  1  0.803829  0.495108  0.740516  0  .  1
   O  O22  1  0.216641  0.739478  0.008209  0  .  1
   O  O23  1  0.795892  0.624828  0.115091  0  .  1
   O  O24  1  0.204108  0.884909  0.375172  0  .  1
   O  O25  1  0.803829  0.740516  0.495108  0  .  1
   O  O26  1  0.783359  0.991791  0.260522  0  .  1
   O  O27  1  0.774916  0.852552  0.852552  0  .  1
 
