#\#CIF1.1
##########################################################################
#               Crystallographic Information Format file 
#               Produced by PyCifRW module
# 
#  This is a CIF file.  CIF has been adopted by the International
#  Union of Crystallography as the standard for data archiving and 
#  transmission.
#
#  For information on this file format, follow the CIF links at
#  http://www.iucr.org
##########################################################################

data_Li4Mn5O12
_symmetry_space_group_name_H-M          'P 1'
_cell_length_a                          5.83926662915
_cell_length_b                          17.4920805088
_cell_length_c                          15.4511269405
_cell_angle_alpha                       19.1431671178
_cell_angle_beta                        55.2760688618
_cell_angle_gamma                       59.8681603512
_chemical_name_systematic               'Generated by pymatgen'
_symmetry_Int_Tables_number             1
_chemical_formula_structural            Li4Mn5O12
_chemical_formula_sum                   'Li8 Mn10 O24'
_cell_volume                            421.526600824
_cell_formula_units_Z                   2
loop_
  _symmetry_equiv_pos_site_id
  _symmetry_equiv_pos_as_xyz
   1  'x, y, z'
 
loop_
  _atom_site_type_symbol
  _atom_site_label
  _atom_site_symmetry_multiplicity
  _atom_site_fract_x
  _atom_site_fract_y
  _atom_site_fract_z
  _atom_site_attached_hydrogens
  _atom_site_B_iso_or_equiv
  _atom_site_occupancy
   Li  Li1  1  0.999640  0.001189  0.002247  0  .  1
   Li  Li2  1  0.243289  0.243937  0.258956  0  .  1
   Li  Li3  1  0.243974  0.579059  0.254630  0  .  1
   Li  Li4  1  0.006770  0.339653  0.993222  0  .  1
   Li  Li5  1  0.624980  0.459482  0.123338  0  .  1
   Li  Li6  1  0.250628  0.919009  0.244507  0  .  1
   Li  Li7  1  0.006793  0.676471  0.986302  0  .  1
   Li  Li8  1  0.622716  0.456601  0.627635  0  .  1
   Mn  Mn9  1  0.626963  0.127172  0.120865  0  .  1
   Mn  Mn10  1  0.131748  0.130125  0.616665  0  .  1
   Mn  Mn11  1  0.625717  0.129269  0.618270  0  .  1
   Mn  Mn12  1  0.123703  0.458882  0.624922  0  .  1
   Mn  Mn13  1  0.621020  0.294266  0.625629  0  .  1
   Mn  Mn14  1  0.621612  0.789411  0.130032  0  .  1
   Mn  Mn15  1  0.116587  0.788152  0.631755  0  .  1
   Mn  Mn16  1  0.626944  0.622570  0.624915  0  .  1
   Mn  Mn17  1  0.622921  0.788872  0.630381  0  .  1
   Mn  Mn18  1  0.624729  0.960059  0.623026  0  .  1
   O  O19  1  0.389601  0.017969  0.389293  0  .  1
   O  O20  1  0.372998  0.186270  0.410337  0  .  1
   O  O21  1  0.371472  0.336342  0.415604  0  .  1
   O  O22  1  0.863871  0.013895  0.410693  0  .  1
   O  O23  1  0.835415  0.186574  0.410102  0  .  1
   O  O24  1  0.416408  0.046842  0.860179  0  .  1
   O  O25  1  0.384934  0.537277  0.388244  0  .  1
   O  O26  1  0.377353  0.696701  0.373646  0  .  1
   O  O27  1  0.864095  0.344811  0.412084  0  .  1
   O  O28  1  0.377249  0.234707  0.835418  0  .  1
   O  O29  1  0.837476  0.543869  0.371153  0  .  1
   O  O30  1  0.855503  0.047059  0.862825  0  .  1
   O  O31  1  0.410538  0.372182  0.880640  0  .  1
   O  O32  1  0.393224  0.870104  0.387056  0  .  1
   O  O33  1  0.869789  0.682426  0.414946  0  .  1
   O  O34  1  0.383572  0.573451  0.836861  0  .  1
   O  O35  1  0.870343  0.220418  0.876942  0  .  1
   O  O36  1  0.862726  0.379652  0.862534  0  .  1
   O  O37  1  0.832368  0.869863  0.390136  0  .  1
   O  O38  1  0.414077  0.732851  0.836999  0  .  1
   O  O39  1  0.385650  0.904935  0.836527  0  .  1
   O  O40  1  0.877081  0.581651  0.833164  0  .  1
   O  O41  1  0.875112  0.733015  0.836901  0  .  1
   O  O42  1  0.858419  0.899473  0.860414  0  .  1
 
