#\#CIF1.1
##########################################################################
#               Crystallographic Information Format file 
#               Produced by PyCifRW module
# 
#  This is a CIF file.  CIF has been adopted by the International
#  Union of Crystallography as the standard for data archiving and 
#  transmission.
#
#  For information on this file format, follow the CIF links at
#  http://www.iucr.org
##########################################################################

data_Li4Mn5O10
_symmetry_space_group_name_H-M          'P 1'
_cell_length_a                          7.98751707951
_cell_length_b                          5.23620512716
_cell_length_c                          5.19379256238
_cell_angle_alpha                       86.5302249775
_cell_angle_beta                        89.2921100469
_cell_angle_gamma                       71.860089615
_chemical_name_systematic               'Generated by pymatgen'
_symmetry_Int_Tables_number             1
_chemical_formula_structural            Li4Mn5O10
_chemical_formula_sum                   'Li4 Mn5 O10'
_cell_volume                            206.047028507
_cell_formula_units_Z                   1
loop_
  _symmetry_equiv_pos_site_id
  _symmetry_equiv_pos_as_xyz
   1  'x, y, z'
 
loop_
  _atom_site_type_symbol
  _atom_site_label
  _atom_site_symmetry_multiplicity
  _atom_site_fract_x
  _atom_site_fract_y
  _atom_site_fract_z
  _atom_site_attached_hydrogens
  _atom_site_B_iso_or_equiv
  _atom_site_occupancy
   Li  Li1  1  0.202960  0.125793  0.564975  0  .  1
   Li  Li2  1  0.208546  0.690295  0.426839  0  .  1
   Li  Li3  1  0.589200  0.525264  0.417821  0  .  1
   Li  Li4  1  0.800564  0.923312  0.425236  0  .  1
   Mn  Mn5  1  0.005299  0.994660  0.999719  0  .  1
   Mn  Mn6  1  0.198937  0.408538  0.009926  0  .  1
   Mn  Mn7  1  0.595118  0.198056  0.973911  0  .  1
   Mn  Mn8  1  0.398628  0.800421  0.984050  0  .  1
   Mn  Mn9  1  0.801088  0.591070  0.980549  0  .  1
   O  O10  1  0.010279  0.335902  0.818153  0  .  1
   O  O11  1  0.210407  0.021766  0.208348  0  .  1
   O  O12  1  0.390239  0.145916  0.806932  0  .  1
   O  O13  1  0.015060  0.670139  0.210677  0  .  1
   O  O14  1  0.217251  0.771776  0.770016  0  .  1
   O  O15  1  0.386616  0.488548  0.197894  0  .  1
   O  O16  1  0.575056  0.547509  0.782932  0  .  1
   O  O17  1  0.769366  0.271070  0.191024  0  .  1
   O  O18  1  0.606459  0.840430  0.178960  0  .  1
   O  O19  1  0.818912  0.916178  0.792760  0  .  1
 
