#\#CIF1.1
##########################################################################
#               Crystallographic Information Format file 
#               Produced by PyCifRW module
# 
#  This is a CIF file.  CIF has been adopted by the International
#  Union of Crystallography as the standard for data archiving and 
#  transmission.
#
#  For information on this file format, follow the CIF links at
#  http://www.iucr.org
##########################################################################

data_Li4Ni7O11
_symmetry_space_group_name_H-M          'P 1'
_cell_length_a                          8.7565254807
_cell_length_b                          5.09576291884
_cell_length_c                          9.70008908956
_cell_angle_alpha                       84.0716554398
_cell_angle_beta                        113.789389306
_cell_angle_gamma                       84.8016138505
_chemical_name_systematic               'Generated by pymatgen'
_symmetry_Int_Tables_number             1
_chemical_formula_structural            Li4Ni7O11
_chemical_formula_sum                   'Li8 Ni14 O22'
_cell_volume                            389.753540511
_cell_formula_units_Z                   2
loop_
  _symmetry_equiv_pos_site_id
  _symmetry_equiv_pos_as_xyz
   1  'x, y, z'
 
loop_
  _atom_site_type_symbol
  _atom_site_label
  _atom_site_symmetry_multiplicity
  _atom_site_fract_x
  _atom_site_fract_y
  _atom_site_fract_z
  _atom_site_attached_hydrogens
  _atom_site_B_iso_or_equiv
  _atom_site_occupancy
   Li  Li1  1  0.951430  0.631238  0.228339  0  .  1
   Li  Li2  1  0.775843  0.186944  0.135297  0  .  1
   Li  Li3  1  0.678270  0.452472  0.591230  0  .  1
   Li  Li4  1  0.500176  0.995671  0.500608  0  .  1
   Li  Li5  1  0.404424  0.267262  0.950762  0  .  1
   Li  Li6  1  0.322849  0.550920  0.412874  0  .  1
   Li  Li7  1  0.227097  0.822510  0.863029  0  .  1
   Li  Li8  1  0.049003  0.365710  0.772406  0  .  1
   Ni  Ni9  1  0.910216  0.275693  0.453716  0  .  1
   Ni  Ni10  1  0.863636  0.909091  0.681818  0  .  1
   Ni  Ni11  1  0.817057  0.542489  0.909920  0  .  1
   Ni  Ni12  1  0.635862  0.091690  0.816740  0  .  1
   Ni  Ni13  1  0.726590  0.818199  0.363657  0  .  1
   Ni  Ni14  1  0.591947  0.728345  0.046836  0  .  1
   Ni  Ni15  1  0.455053  0.633909  0.725008  0  .  1
   Ni  Ni16  1  0.546035  0.364864  0.276252  0  .  1
   Ni  Ni17  1  0.363636  0.909091  0.181818  0  .  1
   Ni  Ni18  1  0.272219  0.184273  0.638628  0  .  1
   Ni  Ni19  1  0.181238  0.453318  0.087384  0  .  1
   Ni  Ni20  1  0.135325  0.089837  0.316800  0  .  1
   Ni  Ni21  1  0.091410  0.726492  0.546896  0  .  1
   Ni  Ni22  1  0.000683  -0.000017  -0.000021  0  .  1
   O  O23  1  0.944359  0.947666  0.352210  0  .  1
   O  O24  1  0.898426  0.606663  0.566939  0  .  1
   O  O25  1  0.828846  0.211519  0.796697  0  .  1
   O  O26  1  0.979838  0.322591  0.108598  0  .  1
   O  O27  1  0.782914  0.870516  0.011427  0  .  1
   O  O28  1  0.668173  0.766079  0.711475  0  .  1
   O  O29  1  0.747435  0.495591  0.255038  0  .  1
   O  O30  1  0.719915  0.142693  0.476596  0  .  1
   O  O31  1  0.621861  0.424373  0.931492  0  .  1
   O  O32  1  0.447605  0.957659  0.839013  0  .  1
   O  O33  1  0.552875  0.034844  0.161172  0  .  1
   O  O34  1  0.512352  0.693454  0.371315  0  .  1
   O  O35  1  0.483049  0.303214  0.627006  0  .  1
   O  O36  1  0.340188  0.201144  0.284987  0  .  1
   O  O37  1  0.387085  0.617038  0.078649  0  .  1
   O  O38  1  0.244223  0.514968  0.736630  0  .  1
   O  O39  1  0.214921  0.124728  0.992321  0  .  1
   O  O40  1  0.279668  0.860522  0.524624  0  .  1
   O  O41  1  0.105412  0.393809  0.432144  0  .  1
   O  O42  1  0.059100  0.052103  0.652161  0  .  1
   O  O43  1  0.007358  0.675488  0.887040  0  .  1
   O  O44  1  0.174398  0.783338  0.202464  0  .  1
 
