#\#CIF1.1
##########################################################################
#               Crystallographic Information Format file 
#               Produced by PyCifRW module
# 
#  This is a CIF file.  CIF has been adopted by the International
#  Union of Crystallography as the standard for data archiving and 
#  transmission.
#
#  For information on this file format, follow the CIF links at
#  http://www.iucr.org
##########################################################################

data_Li4Ti7O16
_symmetry_space_group_name_H-M          'P 1'
_cell_length_a                          5.99388038658
_cell_length_b                          23.8735076005
_cell_length_c                          10.3777001065
_cell_angle_alpha                       29.6121087631
_cell_angle_beta                        54.7199769913
_cell_angle_gamma                       59.8585480752
_chemical_name_systematic               'Generated by pymatgen'
_symmetry_Int_Tables_number             1
_chemical_formula_structural            Li4Ti7O16
_chemical_formula_sum                   'Li8 Ti14 O32'
_cell_volume                            599.008991377
_cell_formula_units_Z                   2
loop_
  _symmetry_equiv_pos_site_id
  _symmetry_equiv_pos_as_xyz
   1  'x, y, z'
 
loop_
  _atom_site_type_symbol
  _atom_site_label
  _atom_site_symmetry_multiplicity
  _atom_site_fract_x
  _atom_site_fract_y
  _atom_site_fract_z
  _atom_site_attached_hydrogens
  _atom_site_B_iso_or_equiv
  _atom_site_occupancy
   Li  Li1  1  0.009361  0.997921  0.994798  0  .  1
   Li  Li2  1  0.002062  0.253566  0.990807  0  .  1
   Li  Li3  1  0.002062  0.496434  0.005070  0  .  1
   Li  Li4  1  0.240639  0.252079  0.255202  0  .  1
   Li  Li5  1  0.240639  0.497921  0.263520  0  .  1
   Li  Li6  1  0.009361  0.752079  0.986480  0  .  1
   Li  Li7  1  0.247938  0.753566  0.244930  0  .  1
   Li  Li8  1  0.247938  0.996434  0.259193  0  .  1
   O  O9  1  0.365733  0.108105  0.418057  0  .  1
   O  O10  1  0.421564  0.001486  0.857932  0  .  1
   O  O11  1  0.393372  0.248514  0.392068  0  .  1
   O  O12  1  0.864044  0.113873  0.408209  0  .  1
   O  O13  1  0.390551  0.365273  0.378904  0  .  1
   O  O14  1  0.385956  0.136127  0.841791  0  .  1
   O  O15  1  0.404156  0.264168  0.825973  0  .  1
   O  O16  1  0.393372  0.501486  0.386125  0  .  1
   O  O17  1  0.856628  0.001486  0.857932  0  .  1
   O  O18  1  0.828436  0.248514  0.392068  0  .  1
   O  O19  1  0.864233  0.359459  0.416849  0  .  1
   O  O20  1  0.884267  0.141895  0.831943  0  .  1
   O  O21  1  0.390551  0.384727  0.839994  0  .  1
   O  O22  1  0.385956  0.613873  0.386297  0  .  1
   O  O23  1  0.404156  0.485832  0.882646  0  .  1
   O  O24  1  0.362776  0.764168  0.367354  0  .  1
   O  O25  1  0.887224  0.264168  0.825973  0  .  1
   O  O26  1  0.828436  0.501486  0.386125  0  .  1
   O  O27  1  0.884267  0.608105  0.399524  0  .  1
   O  O28  1  0.864233  0.390541  0.854686  0  .  1
   O  O29  1  0.365733  0.641895  0.850476  0  .  1
   O  O30  1  0.385767  0.859459  0.395314  0  .  1
   O  O31  1  0.887224  0.485832  0.882646  0  .  1
   O  O32  1  0.421564  0.748514  0.863875  0  .  1
   O  O33  1  0.362776  0.985832  0.424027  0  .  1
   O  O34  1  0.845844  0.764168  0.367354  0  .  1
   O  O35  1  0.859449  0.865273  0.410006  0  .  1
   O  O36  1  0.864044  0.636127  0.863703  0  .  1
   O  O37  1  0.385767  0.890541  0.833151  0  .  1
   O  O38  1  0.856628  0.748514  0.863875  0  .  1
   O  O39  1  0.845844  0.985832  0.424027  0  .  1
   O  O40  1  0.859449  0.884727  0.871096  0  .  1
   Ti  Ti41  1  0.147825  0.006557  0.599897  0  .  1
   Ti  Ti42  1  0.626152  0.006557  0.599897  0  .  1
   Ti  Ti43  1  0.102175  0.243443  0.650103  0  .  1
   Ti  Ti44  1  0.625000  0.125000  0.625000  0  .  1
   Ti  Ti45  1  0.610731  0.383765  0.121739  0  .  1
   Ti  Ti46  1  0.623848  0.243443  0.650103  0  .  1
   Ti  Ti47  1  0.102175  0.506557  0.623873  0  .  1
   Ti  Ti48  1  0.610731  0.366235  0.656799  0  .  1
   Ti  Ti49  1  0.625000  0.625000  0.125000  0  .  1
   Ti  Ti50  1  0.623848  0.506557  0.623873  0  .  1
   Ti  Ti51  1  0.147825  0.743443  0.626127  0  .  1
   Ti  Ti52  1  0.639269  0.866235  0.128261  0  .  1
   Ti  Ti53  1  0.626152  0.743443  0.626127  0  .  1
   Ti  Ti54  1  0.639269  0.883765  0.593201  0  .  1
 
