#\#CIF1.1
##########################################################################
#               Crystallographic Information Format file 
#               Produced by PyCifRW module
# 
#  This is a CIF file.  CIF has been adopted by the International
#  Union of Crystallography as the standard for data archiving and 
#  transmission.
#
#  For information on this file format, follow the CIF links at
#  http://www.iucr.org
##########################################################################

data_Li4Ti11O24
_symmetry_space_group_name_H-M          'P 1'
_cell_length_a                          5.98703140686
_cell_length_b                          10.3400235083
_cell_length_c                          8.45793651717
_cell_angle_alpha                       114.197167917
_cell_angle_beta                        89.9343371518
_cell_angle_gamma                       73.1210252043
_chemical_name_systematic               'Generated by pymatgen'
_symmetry_Int_Tables_number             1
_chemical_formula_structural            Li4Ti11O24
_chemical_formula_sum                   'Li4 Ti11 O24'
_cell_volume                            452.668726776
_cell_formula_units_Z                   1
loop_
  _symmetry_equiv_pos_site_id
  _symmetry_equiv_pos_as_xyz
   1  'x, y, z'
 
loop_
  _atom_site_type_symbol
  _atom_site_label
  _atom_site_symmetry_multiplicity
  _atom_site_fract_x
  _atom_site_fract_y
  _atom_site_fract_z
  _atom_site_attached_hydrogens
  _atom_site_B_iso_or_equiv
  _atom_site_occupancy
   Li  Li1  1  0.003975  0.996272  0.997418  0  .  1
   Li  Li2  1  0.332411  0.331984  0.661701  0  .  1
   Li  Li3  1  0.833379  0.338079  0.921207  0  .  1
   Li  Li4  1  0.418415  0.166290  0.956711  0  .  1
   Ti  Ti5  1  0.257939  0.491746  0.119704  0  .  1
   Ti  Ti6  1  0.091133  0.830205  0.304046  0  .  1
   Ti  Ti7  1  0.577620  0.329739  0.284220  0  .  1
   Ti  Ti8  1  0.099023  0.327301  0.281943  0  .  1
   Ti  Ti9  1  0.753036  0.505352  0.615877  0  .  1
   Ti  Ti10  1  0.917881  0.162688  0.453739  0  .  1
   Ti  Ti11  1  0.582374  0.841303  0.795058  0  .  1
   Ti  Ti12  1  0.739049  0.006646  0.633025  0  .  1
   Ti  Ti13  1  0.421972  0.667489  0.957913  0  .  1
   Ti  Ti14  1  0.913687  0.671929  0.965948  0  .  1
   Ti  Ti15  1  0.255788  0.001863  0.631773  0  .  1
   O  O16  1  0.594376  0.812877  0.017593  0  .  1
   O  O17  1  0.094417  0.813671  0.040638  0  .  1
   O  O18  1  0.950447  0.669232  0.190113  0  .  1
   O  O19  1  0.383522  0.668185  0.190370  0  .  1
   O  O20  1  0.095046  0.346879  0.067107  0  .  1
   O  O21  1  0.562568  0.345410  0.065491  0  .  1
   O  O22  1  0.405022  0.194980  0.221993  0  .  1
   O  O23  1  0.262826  0.479726  0.348296  0  .  1
   O  O24  1  0.076041  0.853690  0.534895  0  .  1
   O  O25  1  0.912727  0.181319  0.228786  0  .  1
   O  O26  1  0.760908  0.478338  0.384997  0  .  1
   O  O27  1  0.574176  0.855768  0.568875  0  .  1
   O  O28  1  0.616088  0.330787  0.529465  0  .  1
   O  O29  1  0.055417  0.332239  0.530638  0  .  1
   O  O30  1  0.216032  0.000879  0.391522  0  .  1
   O  O31  1  0.451541  0.662953  0.726497  0  .  1
   O  O32  1  0.885346  0.663924  0.725169  0  .  1
   O  O33  1  0.786288  0.001367  0.392058  0  .  1
   O  O34  1  0.924575  0.151738  0.691324  0  .  1
   O  O35  1  0.742126  0.519638  0.878254  0  .  1
   O  O36  1  0.243843  0.514481  0.894666  0  .  1
   O  O37  1  0.428355  0.143631  0.695667  0  .  1
   O  O38  1  0.273992  0.985323  0.848951  0  .  1
   O  O39  1  0.740247  0.986834  0.850101  0  .  1
 
