#\#CIF1.1
##########################################################################
#               Crystallographic Information Format file 
#               Produced by PyCifRW module
# 
#  This is a CIF file.  CIF has been adopted by the International
#  Union of Crystallography as the standard for data archiving and 
#  transmission.
#
#  For information on this file format, follow the CIF links at
#  http://www.iucr.org
##########################################################################

data_Li4Ti9O20
_symmetry_space_group_name_H-M          'P 1'
_cell_length_a                          5.9827332881
_cell_length_b                          5.9738420689
_cell_length_c                          24.6779211798
_cell_angle_alpha                       89.9623108021
_cell_angle_beta                        97.006358449
_cell_angle_gamma                       120.022011909
_chemical_name_systematic               'Generated by pymatgen'
_symmetry_Int_Tables_number             1
_chemical_formula_structural            Li4Ti9O20
_chemical_formula_sum                   'Li8 Ti18 O40'
_cell_volume                            756.078073375
_cell_formula_units_Z                   2
loop_
  _symmetry_equiv_pos_site_id
  _symmetry_equiv_pos_as_xyz
   1  'x, y, z'
 
loop_
  _atom_site_type_symbol
  _atom_site_label
  _atom_site_symmetry_multiplicity
  _atom_site_fract_x
  _atom_site_fract_y
  _atom_site_fract_z
  _atom_site_attached_hydrogens
  _atom_site_B_iso_or_equiv
  _atom_site_occupancy
   Li  Li1  1  0.999156  0.998341  0.999150  0  .  1
   Li  Li2  1  0.503035  0.751544  0.251181  0  .  1
   Li  Li3  1  0.597250  0.795642  0.398668  0  .  1
   Li  Li4  1  0.302287  0.151376  0.453863  0  .  1
   Li  Li5  1  0.951653  0.481228  0.425480  0  .  1
   Li  Li6  1  0.199282  0.595867  0.802229  0  .  1
   Li  Li7  1  0.455766  0.975150  0.924411  0  .  1
   Li  Li8  1  0.905393  0.957690  0.850289  0  .  1
   Ti  Ti9  1  0.241329  0.858046  0.126555  0  .  1
   Ti  Ti10  1  0.359997  0.699035  0.019189  0  .  1
   Ti  Ti11  1  0.039534  0.762580  0.324630  0  .  1
   Ti  Ti12  1  0.262187  0.376415  0.121181  0  .  1
   Ti  Ti13  1  0.750438  0.882619  0.125057  0  .  1
   Ti  Ti14  1  0.049300  0.279946  0.327428  0  .  1
   Ti  Ti15  1  0.157372  0.088016  0.223581  0  .  1
   Ti  Ti16  1  0.555355  0.273125  0.327999  0  .  1
   Ti  Ti17  1  0.338247  0.669171  0.523081  0  .  1
   Ti  Ti18  1  0.741701  0.868512  0.620428  0  .  1
   Ti  Ti19  1  0.854261  0.667422  0.524484  0  .  1
   Ti  Ti20  1  0.637472  0.570778  0.726428  0  .  1
   Ti  Ti21  1  0.145682  0.061913  0.722020  0  .  1
   Ti  Ti22  1  0.848050  0.175160  0.521886  0  .  1
   Ti  Ti23  1  0.542942  0.254105  0.828709  0  .  1
   Ti  Ti24  1  0.661669  0.085266  0.721999  0  .  1
   Ti  Ti25  1  0.457222  0.467557  0.926471  0  .  1
   Ti  Ti26  1  0.957299  0.482541  0.922907  0  .  1
   O  O27  1  0.534449  0.983525  0.080500  0  .  1
   O  O28  1  0.095554  0.545746  0.082145  0  .  1
   O  O29  1  0.448273  0.723163  0.168884  0  .  1
   O  O30  1  0.538115  0.545634  0.081668  0  .  1
   O  O31  1  0.332988  0.947772  0.277544  0  .  1
   O  O32  1  0.056599  0.026015  0.082914  0  .  1
   O  O33  1  0.405412  0.202522  0.172473  0  .  1
   O  O34  1  0.973063  0.766855  0.172254  0  .  1
   O  O35  1  0.222379  0.610878  0.366350  0  .  1
   O  O36  1  0.331867  0.387964  0.277261  0  .  1
   O  O37  1  0.892050  0.945974  0.277550  0  .  1
   O  O38  1  0.143676  0.805440  0.483004  0  .  1
   O  O39  1  0.142135  0.337236  0.482451  0  .  1
   O  O40  1  0.041118  0.520214  0.565045  0  .  1
   O  O41  1  0.246326  0.125479  0.368099  0  .  1
   O  O42  1  0.855044  0.427072  0.284424  0  .  1
   O  O43  1  0.754848  0.611021  0.366628  0  .  1
   O  O44  1  0.967781  0.198985  0.172234  0  .  1
   O  O45  1  0.651166  0.826948  0.480909  0  .  1
   O  O46  1  0.365774  0.959780  0.772143  0  .  1
   O  O47  1  0.568526  0.567723  0.572286  0  .  1
   O  O48  1  0.999452  0.999794  0.572048  0  .  1
   O  O49  1  0.755192  0.143216  0.367064  0  .  1
   O  O50  1  0.498788  0.751758  0.679636  0  .  1
   O  O51  1  0.676314  0.339733  0.482485  0  .  1
   O  O52  1  0.935210  0.751408  0.679491  0  .  1
   O  O53  1  0.848624  0.926836  0.767981  0  .  1
   O  O54  1  0.366876  0.411778  0.770420  0  .  1
   O  O55  1  0.570188  0.000600  0.572185  0  .  1
   O  O56  1  0.457861  0.228362  0.684650  0  .  1
   O  O57  1  0.155786  0.795339  0.976089  0  .  1
   O  O58  1  0.242559  0.607404  0.883601  0  .  1
   O  O59  1  0.815254  0.410345  0.769961  0  .  1
   O  O60  1  0.617128  0.794899  0.976131  0  .  1
   O  O61  1  0.170185  0.362333  0.974340  0  .  1
   O  O62  1  0.737917  0.595932  0.875023  0  .  1
   O  O63  1  0.287127  0.159997  0.873278  0  .  1
   O  O64  1  0.935577  0.188508  0.679562  0  .  1
   O  O65  1  0.653937  0.344986  0.962656  0  .  1
   O  O66  1  0.749709  0.160581  0.873080  0  .  1
 
