#\#CIF1.1
##########################################################################
#               Crystallographic Information Format file 
#               Produced by PyCifRW module
# 
#  This is a CIF file.  CIF has been adopted by the International
#  Union of Crystallography as the standard for data archiving and 
#  transmission.
#
#  For information on this file format, follow the CIF links at
#  http://www.iucr.org
##########################################################################

data_Li4V5O10
_symmetry_space_group_name_H-M          'P 1'
_cell_length_a                          5.24448408155
_cell_length_b                          5.15323019545
_cell_length_c                          7.93113679931
_cell_angle_alpha                       110.027800414
_cell_angle_beta                        102.244442323
_cell_angle_gamma                       99.5269161722
_chemical_name_systematic               'Generated by pymatgen'
_symmetry_Int_Tables_number             1
_chemical_formula_structural            Li4V5O10
_chemical_formula_sum                   'Li4 V5 O10'
_cell_volume                            190.068530532
_cell_formula_units_Z                   1
loop_
  _symmetry_equiv_pos_site_id
  _symmetry_equiv_pos_as_xyz
   1  'x, y, z'
 
loop_
  _atom_site_type_symbol
  _atom_site_label
  _atom_site_symmetry_multiplicity
  _atom_site_fract_x
  _atom_site_fract_y
  _atom_site_fract_z
  _atom_site_attached_hydrogens
  _atom_site_B_iso_or_equiv
  _atom_site_occupancy
   Li  Li1  1  0.232542  0.924263  0.425154  0  .  1
   Li  Li2  1  0.505860  0.489074  0.510087  0  .  1
   Li  Li3  1  0.611370  0.713557  0.222244  0  .  1
   Li  Li4  1  0.779556  0.092032  0.598227  0  .  1
   V  V5  1  0.101231  0.709945  0.689123  0  .  1
   V  V6  1  0.997178  0.497649  0.995064  0  .  1
   V  V7  1  0.681800  0.882457  0.888894  0  .  1
   V  V8  1  0.308022  0.112953  0.106882  0  .  1
   V  V9  1  0.903884  0.307985  0.315954  0  .  1
   O  O10  1  0.033352  0.096344  0.861880  0  .  1
   O  O11  1  0.121888  0.297477  0.520780  0  .  1
   O  O12  1  0.326116  0.727356  0.945572  0  .  1
   O  O13  1  0.220878  0.485162  0.234473  0  .  1
   O  O14  1  0.449626  0.866823  0.657375  0  .  1
   O  O15  1  0.556437  0.117141  0.335969  0  .  1
   O  O16  1  0.788845  0.521782  0.761254  0  .  1
   O  O17  1  0.680053  0.284958  0.069028  0  .  1
   O  O18  1  0.863720  0.688453  0.452816  0  .  1
   O  O19  1  0.948406  0.901972  0.139191  0  .  1
 
