#\#CIF1.1
##########################################################################
#               Crystallographic Information Format file 
#               Produced by PyCifRW module
# 
#  This is a CIF file.  CIF has been adopted by the International
#  Union of Crystallography as the standard for data archiving and 
#  transmission.
#
#  For information on this file format, follow the CIF links at
#  http://www.iucr.org
##########################################################################

data_Li4V5O12
_symmetry_space_group_name_H-M          'P 1'
_cell_length_a                          9.01171058294
_cell_length_b                          9.19360471415
_cell_length_c                          12.8308715231
_cell_angle_alpha                       89.9969359861
_cell_angle_beta                        89.085844452
_cell_angle_gamma                       89.9988330352
_chemical_name_systematic               'Generated by pymatgen'
_symmetry_Int_Tables_number             1
_chemical_formula_structural            Li4V5O12
_chemical_formula_sum                   'Li16 V20 O48'
_cell_volume                            1062.90374767
_cell_formula_units_Z                   4
loop_
  _symmetry_equiv_pos_site_id
  _symmetry_equiv_pos_as_xyz
   1  'x, y, z'
 
loop_
  _atom_site_type_symbol
  _atom_site_label
  _atom_site_symmetry_multiplicity
  _atom_site_fract_x
  _atom_site_fract_y
  _atom_site_fract_z
  _atom_site_attached_hydrogens
  _atom_site_B_iso_or_equiv
  _atom_site_occupancy
   Li  Li1  1  0.928363  0.087433  0.702500  0  .  1
   Li  Li2  1  0.981801  0.404789  0.274041  0  .  1
   Li  Li3  1  0.877257  0.674596  0.969812  0  .  1
   Li  Li4  1  0.816129  0.769469  0.190692  0  .  1
   Li  Li5  1  0.683887  0.269404  0.309273  0  .  1
   Li  Li6  1  0.622711  0.174620  0.530099  0  .  1
   Li  Li7  1  0.518140  0.904840  0.225971  0  .  1
   Li  Li8  1  0.571572  0.587436  0.797589  0  .  1
   Li  Li9  1  0.428420  0.412598  0.202452  0  .  1
   Li  Li10  1  0.481959  0.095157  0.774038  0  .  1
   Li  Li11  1  0.377297  0.825334  0.469820  0  .  1
   Li  Li12  1  0.316186  0.730504  0.690728  0  .  1
   Li  Li13  1  0.183963  0.230629  0.809309  0  .  1
   Li  Li14  1  0.122745  0.325446  0.030091  0  .  1
   Li  Li15  1  0.018249  0.595215  0.725976  0  .  1
   Li  Li16  1  0.071629  0.912594  0.297527  0  .  1
   V  V17  1  0.754797  0.966958  0.381319  0  .  1
   V  V18  1  0.745231  0.466979  0.118681  0  .  1
   V  V19  1  0.254735  0.533044  0.881319  0  .  1
   V  V20  1  0.245212  0.033014  0.618694  0  .  1
   V  V21  1  0.960211  0.250602  0.493992  0  .  1
   V  V22  1  0.884262  0.381786  0.849949  0  .  1
   V  V23  1  0.894163  0.115223  0.142045  0  .  1
   V  V24  1  0.750517  0.527885  0.607438  0  .  1
   V  V25  1  0.749449  0.027861  0.892595  0  .  1
   V  V26  1  0.605875  0.615229  0.357938  0  .  1
   V  V27  1  0.615676  0.881800  0.650058  0  .  1
   V  V28  1  0.539779  0.750638  0.006006  0  .  1
   V  V29  1  0.460266  0.249395  0.993967  0  .  1
   V  V30  1  0.384288  0.118213  0.349955  0  .  1
   V  V31  1  0.394207  0.384733  0.642108  0  .  1
   V  V32  1  0.250519  0.972149  0.107390  0  .  1
   V  V33  1  0.249482  0.472102  0.392600  0  .  1
   V  V34  1  0.105784  0.884782  0.857918  0  .  1
   V  V35  1  0.115688  0.618201  0.150030  0  .  1
   V  V36  1  0.039783  0.749361  0.506028  0  .  1
   O  O37  1  0.930809  0.575214  0.184456  0  .  1
   O  O38  1  0.920740  0.864825  0.897941  0  .  1
   O  O39  1  0.927198  0.674519  0.605229  0  .  1
   O  O40  1  0.951566  0.879034  0.431787  0  .  1
   O  O41  1  0.896451  0.374381  0.586165  0  .  1
   O  O42  1  0.879486  0.190972  0.837772  0  .  1
   O  O43  1  0.859549  0.436551  0.977245  0  .  1
   O  O44  1  0.836154  0.282777  0.195169  0  .  1
   O  O45  1  0.876864  0.981171  0.238093  0  .  1
   O  O46  1  0.797377  0.181433  0.434977  0  .  1
   O  O47  1  0.775464  0.494867  0.769446  0  .  1
   O  O48  1  0.781993  0.067169  0.039676  0  .  1
   O  O49  1  0.724421  0.994878  0.730567  0  .  1
   O  O50  1  0.718011  0.567261  0.460349  0  .  1
   O  O51  1  0.702624  0.681487  0.064978  0  .  1
   O  O52  1  0.640375  0.936562  0.522750  0  .  1
   O  O53  1  0.623248  0.481156  0.261913  0  .  1
   O  O54  1  0.663850  0.782795  0.304799  0  .  1
   O  O55  1  0.620479  0.690972  0.662265  0  .  1
   O  O56  1  0.603426  0.874431  0.913803  0  .  1
   O  O57  1  0.572915  0.174558  0.894804  0  .  1
   O  O58  1  0.579233  0.364817  0.602075  0  .  1
   O  O59  1  0.548479  0.379065  0.068241  0  .  1
   O  O60  1  0.569165  0.075212  0.315576  0  .  1
   O  O61  1  0.430788  0.924781  0.684450  0  .  1
   O  O62  1  0.451506  0.620949  0.931822  0  .  1
   O  O63  1  0.420770  0.635132  0.397921  0  .  1
   O  O64  1  0.427118  0.825492  0.105222  0  .  1
   O  O65  1  0.396538  0.125556  0.086173  0  .  1
   O  O66  1  0.379521  0.309053  0.337733  0  .  1
   O  O67  1  0.336174  0.217183  0.695220  0  .  1
   O  O68  1  0.376800  0.518841  0.738099  0  .  1
   O  O69  1  0.359538  0.063475  0.477245  0  .  1
   O  O70  1  0.297439  0.318556  0.934993  0  .  1
   O  O71  1  0.281982  0.432734  0.539678  0  .  1
   O  O72  1  0.275528  0.005133  0.269411  0  .  1
   O  O73  1  0.217992  0.932819  0.960320  0  .  1
   O  O74  1  0.224502  0.505150  0.230559  0  .  1
   O  O75  1  0.202668  0.818502  0.564987  0  .  1
   O  O76  1  0.123159  0.018870  0.761910  0  .  1
   O  O77  1  0.163850  0.717225  0.804824  0  .  1
   O  O78  1  0.140333  0.563440  0.022736  0  .  1
   O  O79  1  0.120497  0.809033  0.162222  0  .  1
   O  O80  1  0.103502  0.625514  0.413829  0  .  1
   O  O81  1  0.048410  0.120940  0.568256  0  .  1
   O  O82  1  0.072873  0.325452  0.394791  0  .  1
   O  O83  1  0.079243  0.135229  0.102021  0  .  1
   O  O84  1  0.069158  0.424793  0.815568  0  .  1
 
