#\#CIF1.1
##########################################################################
#               Crystallographic Information Format file 
#               Produced by PyCifRW module
# 
#  This is a CIF file.  CIF has been adopted by the International
#  Union of Crystallography as the standard for data archiving and 
#  transmission.
#
#  For information on this file format, follow the CIF links at
#  http://www.iucr.org
##########################################################################

data_Li5(NiO2)4
_symmetry_space_group_name_H-M          'P 1'
_cell_length_a                          5.97218669062
_cell_length_b                          5.74437176526
_cell_length_c                          9.62678332895
_cell_angle_alpha                       90.0251054873
_cell_angle_beta                        89.9907419753
_cell_angle_gamma                       61.424607719
_chemical_name_systematic               'Generated by pymatgen'
_symmetry_Int_Tables_number             1
_chemical_formula_structural            Li5(NiO2)4
_chemical_formula_sum                   'Li10 Ni8 O16'
_cell_volume                            290.03123344
_cell_formula_units_Z                   2
loop_
  _symmetry_equiv_pos_site_id
  _symmetry_equiv_pos_as_xyz
   1  'x, y, z'
 
loop_
  _atom_site_type_symbol
  _atom_site_label
  _atom_site_symmetry_multiplicity
  _atom_site_fract_x
  _atom_site_fract_y
  _atom_site_fract_z
  _atom_site_attached_hydrogens
  _atom_site_B_iso_or_equiv
  _atom_site_occupancy
   Li  Li1  1  0.972949  0.011145  0.485308  0  .  1
   Li  Li2  1  0.027393  0.983926  0.985136  0  .  1
   Li  Li3  1  0.198302  0.184801  0.558439  0  .  1
   Li  Li4  1  0.353523  0.323231  0.782307  0  .  1
   Li  Li5  1  0.594325  0.203702  0.545060  0  .  1
   Li  Li6  1  0.203624  0.618825  0.559144  0  .  1
   Li  Li7  1  0.805703  0.383646  0.057505  0  .  1
   Li  Li8  1  0.646254  0.676568  0.282344  0  .  1
   Li  Li9  1  0.408144  0.796807  0.043118  0  .  1
   Li  Li10  1  0.801041  0.817284  0.058537  0  .  1
   Ni  Ni11  1  0.330699  0.335465  0.033503  0  .  1
   Ni  Ni12  1  0.663854  0.667565  0.533054  0  .  1
   Ni  Ni13  1  0.151647  0.176718  0.286268  0  .  1
   Ni  Ni14  1  0.642991  0.178626  0.286763  0  .  1
   Ni  Ni15  1  0.152337  0.670631  0.286412  0  .  1
   Ni  Ni16  1  0.847990  0.328819  0.786330  0  .  1
   Ni  Ni17  1  0.359593  0.819926  0.787132  0  .  1
   Ni  Ni18  1  0.847242  0.822952  0.786275  0  .  1
   O  O19  1  0.010753  0.987232  0.680707  0  .  1
   O  O20  1  0.982030  0.002062  0.181542  0  .  1
   O  O21  1  0.186829  0.163722  0.914259  0  .  1
   O  O22  1  0.476586  0.028235  0.157928  0  .  1
   O  O23  1  0.702376  0.145345  0.902124  0  .  1
   O  O24  1  0.014060  0.501136  0.167774  0  .  1
   O  O25  1  0.311673  0.350128  0.399242  0  .  1
   O  O26  1  0.481849  0.494254  0.156315  0  .  1
   O  O27  1  0.809725  0.349419  0.411846  0  .  1
   O  O28  1  0.192359  0.646157  0.913839  0  .  1
   O  O29  1  0.525206  0.500117  0.657052  0  .  1
   O  O30  1  0.983160  0.511390  0.667338  0  .  1
   O  O31  1  0.694011  0.659081  0.900596  0  .  1
   O  O32  1  0.299123  0.840266  0.404878  0  .  1
   O  O33  1  0.519670  0.977436  0.654906  0  .  1
   O  O34  1  0.803352  0.842998  0.411656  0  .  1
 
