#\#CIF1.1
##########################################################################
#               Crystallographic Information Format file 
#               Produced by PyCifRW module
# 
#  This is a CIF file.  CIF has been adopted by the International
#  Union of Crystallography as the standard for data archiving and 
#  transmission.
#
#  For information on this file format, follow the CIF links at
#  http://www.iucr.org
##########################################################################

data_Li5(CoO2)8
_symmetry_space_group_name_H-M          'P 1'
_cell_length_a                          9.98373008669
_cell_length_b                          5.65450648193
_cell_length_c                          9.76160875291
_cell_angle_alpha                       89.9056965937
_cell_angle_beta                        85.468980944
_cell_angle_gamma                       81.9894067623
_chemical_name_systematic               'Generated by pymatgen'
_symmetry_Int_Tables_number             1
_chemical_formula_structural            Li5(CoO2)8
_chemical_formula_sum                   'Li10 Co16 O32'
_cell_volume                            543.965629953
_cell_formula_units_Z                   2
loop_
  _symmetry_equiv_pos_site_id
  _symmetry_equiv_pos_as_xyz
   1  'x, y, z'
 
loop_
  _atom_site_type_symbol
  _atom_site_label
  _atom_site_symmetry_multiplicity
  _atom_site_fract_x
  _atom_site_fract_y
  _atom_site_fract_z
  _atom_site_attached_hydrogens
  _atom_site_B_iso_or_equiv
  _atom_site_occupancy
   Li  Li1  1  0.742846  0.060531  0.531700  0  .  1
   Li  Li2  1  0.745193  0.055563  0.005863  0  .  1
   Li  Li3  1  0.254521  0.187108  0.732570  0  .  1
   Li  Li4  1  0.254030  0.414530  0.993283  0  .  1
   Li  Li5  1  0.749799  0.309742  0.273385  0  .  1
   Li  Li6  1  0.744141  0.571087  0.004094  0  .  1
   Li  Li7  1  0.249599  0.685758  0.228764  0  .  1
   Li  Li8  1  0.255541  0.686041  0.732538  0  .  1
   Li  Li9  1  0.747776  0.565508  0.534368  0  .  1
   Li  Li10  1  0.258502  0.953600  0.463786  0  .  1
   Co  Co11  1  0.007107  0.998154  0.000415  0  .  1
   Co  Co12  1  0.000884  0.003078  0.497590  0  .  1
   Co  Co13  1  0.006351  0.249749  0.249983  0  .  1
   Co  Co14  1  0.501293  0.124127  0.873602  0  .  1
   Co  Co15  1  0.499946  0.124622  0.375763  0  .  1
   Co  Co16  1  0.995058  0.253297  0.751539  0  .  1
   Co  Co17  1  0.498948  0.374508  0.126642  0  .  1
   Co  Co18  1  0.007147  0.498472  0.498505  0  .  1
   Co  Co19  1  -0.000514  0.501797  0.999088  0  .  1
   Co  Co20  1  0.497542  0.375393  0.624234  0  .  1
   Co  Co21  1  0.992675  0.751907  0.249400  0  .  1
   Co  Co22  1  0.992067  0.749867  0.751493  0  .  1
   Co  Co23  1  0.499725  0.624841  0.874173  0  .  1
   Co  Co24  1  0.502952  0.624021  0.375994  0  .  1
   Co  Co25  1  0.497173  0.875364  0.126561  0  .  1
   Co  Co26  1  0.501051  0.874348  0.624654  0  .  1
   O  O27  1  0.897087  0.032811  0.344898  0  .  1
   O  O28  1  0.601530  0.101088  0.198109  0  .  1
   O  O29  1  0.396451  0.142847  0.550886  0  .  1
   O  O30  1  0.103931  0.216802  0.410837  0  .  1
   O  O31  1  0.401756  0.150483  0.050043  0  .  1
   O  O32  1  0.103090  0.228172  0.908501  0  .  1
   O  O33  1  0.598442  0.099410  0.697063  0  .  1
   O  O34  1  0.900744  0.023268  0.845725  0  .  1
   O  O35  1  0.102722  0.482939  0.156059  0  .  1
   O  O36  1  0.606531  0.346346  0.450598  0  .  1
   O  O37  1  0.402496  0.402655  0.297923  0  .  1
   O  O38  1  0.099943  0.480523  0.665584  0  .  1
   O  O39  1  0.899468  0.274654  0.588282  0  .  1
   O  O40  1  0.392998  0.400990  0.801423  0  .  1
   O  O41  1  0.602599  0.349897  0.953677  0  .  1
   O  O42  1  0.897440  0.273485  0.090436  0  .  1
   O  O43  1  0.396668  0.646996  0.052880  0  .  1
   O  O44  1  0.101543  0.721739  0.904194  0  .  1
   O  O45  1  0.102247  0.734713  0.404750  0  .  1
   O  O46  1  0.597838  0.601290  0.698043  0  .  1
   O  O47  1  0.896374  0.527320  0.842662  0  .  1
   O  O48  1  0.602370  0.597250  0.196865  0  .  1
   O  O49  1  0.900249  0.517804  0.344148  0  .  1
   O  O50  1  0.397587  0.657871  0.550420  0  .  1
   O  O51  1  0.098169  0.970946  0.157163  0  .  1
   O  O52  1  0.895985  0.780015  0.083991  0  .  1
   O  O53  1  0.398962  0.894868  0.300485  0  .  1
   O  O54  1  0.102395  0.973403  0.659828  0  .  1
   O  O55  1  0.600733  0.848974  0.954785  0  .  1
   O  O56  1  0.604175  0.850418  0.454503  0  .  1
   O  O57  1  0.898866  0.776536  0.588249  0  .  1
   O  O58  1  0.397258  0.900472  0.797003  0  .  1
 
