#\#CIF1.1
##########################################################################
#               Crystallographic Information Format file 
#               Produced by PyCifRW module
# 
#  This is a CIF file.  CIF has been adopted by the International
#  Union of Crystallography as the standard for data archiving and 
#  transmission.
#
#  For information on this file format, follow the CIF links at
#  http://www.iucr.org
##########################################################################

data_Li5(NiO2)8
_symmetry_space_group_name_H-M          'P 1'
_cell_length_a                          7.60254375749
_cell_length_b                          6.49874089109
_cell_length_c                          12.3805938921
_cell_angle_alpha                       99.8424743823
_cell_angle_beta                        88.2451692833
_cell_angle_gamma                       65.6812930155
_chemical_name_systematic               'Generated by pymatgen'
_symmetry_Int_Tables_number             1
_chemical_formula_structural            Li5(NiO2)8
_chemical_formula_sum                   'Li10 Ni16 O32'
_cell_volume                            545.720363215
_cell_formula_units_Z                   2
loop_
  _symmetry_equiv_pos_site_id
  _symmetry_equiv_pos_as_xyz
   1  'x, y, z'
 
loop_
  _atom_site_type_symbol
  _atom_site_label
  _atom_site_symmetry_multiplicity
  _atom_site_fract_x
  _atom_site_fract_y
  _atom_site_fract_z
  _atom_site_attached_hydrogens
  _atom_site_B_iso_or_equiv
  _atom_site_occupancy
   Li  Li1  1  0.243889  0.127131  0.874998  0  .  1
   Li  Li2  1  0.135377  0.812541  0.182414  0  .  1
   Li  Li3  1  0.259451  0.630806  0.372477  0  .  1
   Li  Li4  1  0.359904  0.436766  0.560530  0  .  1
   Li  Li5  1  0.494084  0.244490  0.753921  0  .  1
   Li  Li6  1  0.374243  0.939422  0.061006  0  .  1
   Li  Li7  1  0.777575  0.384804  0.614749  0  .  1
   Li  Li8  1  0.874114  0.181794  0.821408  0  .  1
   Li  Li9  1  0.754127  0.878155  0.114178  0  .  1
   Li  Li10  1  0.843494  0.675800  0.323974  0  .  1
   Ni  Ni11  1  0.066824  0.399100  0.093563  0  .  1
   Ni  Ni12  1  0.190120  0.214551  0.282192  0  .  1
   Ni  Ni13  1  0.310334  0.031501  0.470010  0  .  1
   Ni  Ni14  1  0.062860  0.904351  0.593434  0  .  1
   Ni  Ni15  1  0.195369  0.716100  0.781588  0  .  1
   Ni  Ni16  1  0.313515  0.528295  0.967752  0  .  1
   Ni  Ni17  1  0.436058  0.345735  0.157245  0  .  1
   Ni  Ni18  1  0.561780  0.156396  0.342441  0  .  1
   Ni  Ni19  1  0.432230  0.852183  0.659174  0  .  1
   Ni  Ni20  1  0.557837  0.662361  0.845291  0  .  1
   Ni  Ni21  1  0.685814  0.468133  0.031667  0  .  1
   Ni  Ni22  1  0.808968  0.287227  0.219739  0  .  1
   Ni  Ni23  1  0.929223  0.094166  0.404199  0  .  1
   Ni  Ni24  1  0.689198  0.965923  0.530164  0  .  1
   Ni  Ni25  1  0.816632  0.777775  0.717976  0  .  1
   Ni  Ni26  1  0.938518  0.595876  0.904522  0  .  1
   O  O27  1  0.024412  0.166114  0.533329  0  .  1
   O  O28  1  0.101079  0.130469  0.152261  0  .  1
   O  O29  1  0.040814  0.667166  0.039812  0  .  1
   O  O30  1  0.179889  0.485587  0.226984  0  .  1
   O  O31  1  0.104650  0.639334  0.650565  0  .  1
   O  O32  1  0.223980  0.450094  0.836296  0  .  1
   O  O33  1  0.327728  0.255058  0.030661  0  .  1
   O  O34  1  0.303088  0.295521  0.406794  0  .  1
   O  O35  1  0.438485  0.121988  0.600753  0  .  1
   O  O36  1  0.473882  0.078663  0.209137  0  .  1
   O  O37  1  0.181644  0.948334  0.335389  0  .  1
   O  O38  1  0.170208  0.983854  0.736134  0  .  1
   O  O39  1  0.404309  0.607871  0.099769  0  .  1
   O  O40  1  0.326805  0.764635  0.531086  0  .  1
   O  O41  1  0.300378  0.804748  0.909825  0  .  1
   O  O42  1  0.526468  0.422614  0.289028  0  .  1
   O  O43  1  0.457707  0.570648  0.718933  0  .  1
   O  O44  1  0.697310  0.215270  0.092595  0  .  1
   O  O45  1  0.666465  0.227200  0.474365  0  .  1
   O  O46  1  0.582945  0.395137  0.892602  0  .  1
   O  O47  1  0.821294  0.019230  0.274636  0  .  1
   O  O48  1  0.796050  0.044033  0.659968  0  .  1
   O  O49  1  0.527695  0.929045  0.791066  0  .  1
   O  O50  1  0.590602  0.896453  0.400199  0  .  1
   O  O51  1  0.702944  0.712741  0.592159  0  .  1
   O  O52  1  0.650047  0.735086  0.980016  0  .  1
   O  O53  1  0.811514  0.546317  0.163400  0  .  1
   O  O54  1  0.910326  0.354925  0.348794  0  .  1
   O  O55  1  0.815498  0.520363  0.777093  0  .  1
   O  O56  1  0.961969  0.331074  0.954545  0  .  1
   O  O57  1  0.933276  0.849203  0.843029  0  .  1
   O  O58  1  0.944451  0.829469  0.451516  0  .  1
 
