#\#CIF1.1
##########################################################################
#               Crystallographic Information Format file 
#               Produced by PyCifRW module
# 
#  This is a CIF file.  CIF has been adopted by the International
#  Union of Crystallography as the standard for data archiving and 
#  transmission.
#
#  For information on this file format, follow the CIF links at
#  http://www.iucr.org
##########################################################################

data_Li5Cr2O8
_symmetry_space_group_name_H-M          'P 1'
_cell_length_a                          7.86859251592
_cell_length_b                          5.36064323396
_cell_length_c                          5.15379935463
_cell_angle_alpha                       65.5479538644
_cell_angle_beta                        110.210186203
_cell_angle_gamma                       98.5474605262
_chemical_name_systematic               'Generated by pymatgen'
_symmetry_Int_Tables_number             1
_chemical_formula_structural            Li5Cr2O8
_chemical_formula_sum                   'Li5 Cr2 O8'
_cell_volume                            185.704762944
_cell_formula_units_Z                   1
loop_
  _symmetry_equiv_pos_site_id
  _symmetry_equiv_pos_as_xyz
   1  'x, y, z'
 
loop_
  _atom_site_type_symbol
  _atom_site_label
  _atom_site_symmetry_multiplicity
  _atom_site_fract_x
  _atom_site_fract_y
  _atom_site_fract_z
  _atom_site_attached_hydrogens
  _atom_site_B_iso_or_equiv
  _atom_site_occupancy
   Li  Li1  1  0.180641  0.291750  0.409954  0  .  1
   Li  Li2  1  0.465543  0.756204  0.479124  0  .  1
   Li  Li3  1  0.561168  0.268531  0.514150  0  .  1
   Li  Li4  1  0.807556  0.721124  0.555160  0  .  1
   Li  Li5  1  0.987473  0.202901  0.800603  0  .  1
   Cr  Cr6  1  0.239981  0.710959  0.834139  0  .  1
   Cr  Cr7  1  0.758231  0.295050  0.157217  0  .  1
   O  O8  1  0.051705  0.849501  0.793600  0  .  1
   O  O9  1  0.191119  0.472808  0.692660  0  .  1
   O  O10  1  0.360737  0.961217  0.646366  0  .  1
   O  O11  1  0.352550  0.560107  0.204164  0  .  1
   O  O12  1  0.635204  0.475030  0.787948  0  .  1
   O  O13  1  0.631849  0.022588  0.325404  0  .  1
   O  O14  1  0.812281  0.451210  0.406578  0  .  1
   O  O15  1  0.957739  0.202361  0.151517  0  .  1
 
