#\#CIF1.1
##########################################################################
#               Crystallographic Information Format file 
#               Produced by PyCifRW module
# 
#  This is a CIF file.  CIF has been adopted by the International
#  Union of Crystallography as the standard for data archiving and 
#  transmission.
#
#  For information on this file format, follow the CIF links at
#  http://www.iucr.org
##########################################################################

data_Li5Cr5O12
_symmetry_space_group_name_H-M          'P 1'
_cell_length_a                          5.09900831464
_cell_length_b                          5.08697765007
_cell_length_c                          19.7792001739
_cell_angle_alpha                       84.8745719707
_cell_angle_beta                        95.0229097899
_cell_angle_gamma                       59.6818411925
_chemical_name_systematic               'Generated by pymatgen'
_symmetry_Int_Tables_number             1
_chemical_formula_structural            Li5Cr5O12
_chemical_formula_sum                   'Li10 Cr10 O24'
_cell_volume                            435.825073765
_cell_formula_units_Z                   2
loop_
  _symmetry_equiv_pos_site_id
  _symmetry_equiv_pos_as_xyz
   1  'x, y, z'
 
loop_
  _atom_site_type_symbol
  _atom_site_label
  _atom_site_symmetry_multiplicity
  _atom_site_fract_x
  _atom_site_fract_y
  _atom_site_fract_z
  _atom_site_attached_hydrogens
  _atom_site_B_iso_or_equiv
  _atom_site_occupancy
   Li  Li1  1  0.343939  0.828031  0.501910  0  .  1
   Li  Li2  1  0.150827  0.671266  0.247432  0  .  1
   Li  Li3  1  0.758798  0.746539  0.624564  0  .  1
   Li  Li4  1  0.348189  0.829489  0.002489  0  .  1
   Li  Li5  1  0.838219  0.341135  0.748760  0  .  1
   Li  Li6  1  0.513100  0.995474  0.748761  0  .  1
   Li  Li7  1  0.748557  0.748732  0.125041  0  .  1
   Li  Li8  1  0.670641  0.152045  0.501451  0  .  1
   Li  Li9  1  0.828993  0.347014  0.247366  0  .  1
   Li  Li10  1  0.670846  0.149934  0.002437  0  .  1
   Cr  Cr11  1  0.248373  0.255730  0.874685  0  .  1
   Cr  Cr12  1  0.921172  0.913410  0.875141  0  .  1
   Cr  Cr13  1  0.584313  0.585593  0.875258  0  .  1
   Cr  Cr14  1  0.410095  0.415483  0.624924  0  .  1
   Cr  Cr15  1  0.067598  0.091795  0.625165  0  .  1
   Cr  Cr16  1  0.251068  0.251425  0.374963  0  .  1
   Cr  Cr17  1  0.915806  0.916144  0.374913  0  .  1
   Cr  Cr18  1  0.587092  0.587341  0.374900  0  .  1
   Cr  Cr19  1  0.415508  0.414625  0.124848  0  .  1
   Cr  Cr20  1  0.081569  0.082872  0.124829  0  .  1
   O  O21  1  0.208005  0.961374  0.821301  0  .  1
   O  O22  1  0.285184  0.557220  0.928251  0  .  1
   O  O23  1  0.621320  0.888434  0.929709  0  .  1
   O  O24  1  0.073738  0.795862  0.571252  0  .  1
   O  O25  1  0.428741  0.700729  0.676499  0  .  1
   O  O26  1  0.199618  0.954753  0.321800  0  .  1
   O  O27  1  0.143630  0.334788  0.679308  0  .  1
   O  O28  1  0.287725  0.555195  0.428111  0  .  1
   O  O29  1  0.621524  0.887657  0.429667  0  .  1
   O  O30  1  0.072576  0.809169  0.069744  0  .  1
   O  O31  1  0.871527  0.630765  0.820329  0  .  1
   O  O32  1  0.564497  0.271244  0.822118  0  .  1
   O  O33  1  0.364822  0.154578  0.572854  0  .  1
   O  O34  1  0.424288  0.688221  0.180108  0  .  1
   O  O35  1  0.955711  0.198700  0.928119  0  .  1
   O  O36  1  0.704499  0.416849  0.569702  0  .  1
   O  O37  1  0.131442  0.365554  0.175736  0  .  1
   O  O38  1  0.763668  0.094402  0.681227  0  .  1
   O  O39  1  0.886851  0.621825  0.320361  0  .  1
   O  O40  1  0.554641  0.286886  0.321960  0  .  1
   O  O41  1  0.365412  0.131502  0.074020  0  .  1
   O  O42  1  0.955053  0.199765  0.428323  0  .  1
   O  O43  1  0.687656  0.425006  0.069630  0  .  1
   O  O44  1  0.809491  0.072126  0.180015  0  .  1
 
