#\#CIF1.1
##########################################################################
#               Crystallographic Information Format file 
#               Produced by PyCifRW module
# 
#  This is a CIF file.  CIF has been adopted by the International
#  Union of Crystallography as the standard for data archiving and 
#  transmission.
#
#  For information on this file format, follow the CIF links at
#  http://www.iucr.org
##########################################################################

data_Li5FeS4
_symmetry_space_group_name_H-M          'P 1'
_cell_length_a                          3.7228756563
_cell_length_b                          7.72953864604
_cell_length_c                          6.75025188426
_cell_angle_alpha                       63.647478792
_cell_angle_beta                        89.9718693427
_cell_angle_gamma                       76.1687530053
_chemical_name_systematic               'Generated by pymatgen'
_symmetry_Int_Tables_number             1
_chemical_formula_structural            Li5FeS4
_chemical_formula_sum                   'Li5 Fe1 S4'
_cell_volume                            167.762884625
_cell_formula_units_Z                   1
loop_
  _symmetry_equiv_pos_site_id
  _symmetry_equiv_pos_as_xyz
   1  'x, y, z'
 
loop_
  _atom_site_type_symbol
  _atom_site_label
  _atom_site_symmetry_multiplicity
  _atom_site_fract_x
  _atom_site_fract_y
  _atom_site_fract_z
  _atom_site_attached_hydrogens
  _atom_site_B_iso_or_equiv
  _atom_site_occupancy
   Li  Li1  1  0.173676  0.644386  0.959230  0  .  1
   Li  Li2  1  0.177616  0.645409  0.387238  0  .  1
   Li  Li3  1  0.826598  0.356224  0.606386  0  .  1
   Li  Li4  1  0.825304  0.348244  0.045624  0  .  1
   Li  Li5  1  0.500838  0.005128  0.498593  0  .  1
   Fe  Fe6  1  0.495393  0.006606  0.996513  0  .  1
   S  S7  1  0.003456  0.997448  0.248214  0  .  1
   S  S8  1  0.703489  0.591720  0.202199  0  .  1
   S  S9  1  0.300892  0.402509  0.798548  0  .  1
   S  S10  1  0.998806  0.002412  0.752780  0  .  1
 
