#\#CIF1.1
##########################################################################
#               Crystallographic Information Format file 
#               Produced by PyCifRW module
# 
#  This is a CIF file.  CIF has been adopted by the International
#  Union of Crystallography as the standard for data archiving and 
#  transmission.
#
#  For information on this file format, follow the CIF links at
#  http://www.iucr.org
##########################################################################

data_Li5Fe7O12
_symmetry_space_group_name_H-M          'P 1'
_cell_length_a                          5.20290381796
_cell_length_b                          5.20290407252
_cell_length_c                          9.87344822142
_cell_angle_alpha                       84.8091106519
_cell_angle_beta                        95.1908863446
_cell_angle_gamma                       59.7652845728
_chemical_name_systematic               'Generated by pymatgen'
_symmetry_Int_Tables_number             1
_chemical_formula_structural            Li5Fe7O12
_chemical_formula_sum                   'Li5 Fe7 O12'
_cell_volume                            227.079372125
_cell_formula_units_Z                   1
loop_
  _symmetry_equiv_pos_site_id
  _symmetry_equiv_pos_as_xyz
   1  'x, y, z'
 
loop_
  _atom_site_type_symbol
  _atom_site_label
  _atom_site_symmetry_multiplicity
  _atom_site_fract_x
  _atom_site_fract_y
  _atom_site_fract_z
  _atom_site_attached_hydrogens
  _atom_site_B_iso_or_equiv
  _atom_site_occupancy
   Li  Li1  1  0.167112  0.667827  0.505453  0  .  1
   Li  Li2  1  0.324578  0.839034  0.994721  0  .  1
   Li  Li3  1  0.667827  0.167112  0.994547  0  .  1
   Li  Li4  1  0.839034  0.324578  0.505279  0  .  1
   Li  Li5  1  0.916091  0.916091  0.750000  0  .  1
   Fe  Fe6  1  0.076200  0.076200  0.250000  0  .  1
   Fe  Fe7  1  0.996686  0.511900  0.998843  0  .  1
   Fe  Fe8  1  0.249903  0.249903  0.750000  0  .  1
   Fe  Fe9  1  0.511900  0.996686  0.501157  0  .  1
   Fe  Fe10  1  0.422973  0.422973  0.250000  0  .  1
   Fe  Fe11  1  0.579939  0.579939  0.750000  0  .  1
   Fe  Fe12  1  0.754084  0.754084  0.250000  0  .  1
   O  O13  1  0.956941  0.237562  0.869905  0  .  1
   O  O14  1  0.237562  0.956941  0.630095  0  .  1
   O  O15  1  0.136618  0.350715  0.372364  0  .  1
   O  O16  1  0.350715  0.136618  0.127636  0  .  1
   O  O17  1  0.289811  0.527303  0.869409  0  .  1
   O  O18  1  0.527303  0.289811  0.630591  0  .  1
   O  O19  1  0.445908  0.732140  0.374505  0  .  1
   O  O20  1  0.732140  0.445908  0.125495  0  .  1
   O  O21  1  0.620515  0.859345  0.873088  0  .  1
   O  O22  1  0.859345  0.620515  0.626912  0  .  1
   O  O23  1  0.798020  0.038799  0.381591  0  .  1
   O  O24  1  0.038799  0.798020  0.118409  0  .  1
 
