#\#CIF1.1
##########################################################################
#               Crystallographic Information Format file 
#               Produced by PyCifRW module
# 
#  This is a CIF file.  CIF has been adopted by the International
#  Union of Crystallography as the standard for data archiving and 
#  transmission.
#
#  For information on this file format, follow the CIF links at
#  http://www.iucr.org
##########################################################################

data_Li5Mn7O15
_symmetry_space_group_name_H-M          'P 1'
_cell_length_a                          5.9003958697
_cell_length_b                          5.91584967025
_cell_length_c                          10.1536353793
_cell_angle_alpha                       108.365023347
_cell_angle_beta                        90.1402559295
_cell_angle_gamma                       61.892242395
_chemical_name_systematic               'Generated by pymatgen'
_symmetry_Int_Tables_number             1
_chemical_formula_structural            Li5Mn7O15
_chemical_formula_sum                   'Li5 Mn7 O15'
_cell_volume                            292.153067096
_cell_formula_units_Z                   1
loop_
  _symmetry_equiv_pos_site_id
  _symmetry_equiv_pos_as_xyz
   1  'x, y, z'
 
loop_
  _atom_site_type_symbol
  _atom_site_label
  _atom_site_symmetry_multiplicity
  _atom_site_fract_x
  _atom_site_fract_y
  _atom_site_fract_z
  _atom_site_attached_hydrogens
  _atom_site_B_iso_or_equiv
  _atom_site_occupancy
   Li  Li1  1  0.819950  0.883911  0.067901  0  .  1
   Li  Li2  1  0.245207  0.479329  0.235844  0  .  1
   Li  Li3  1  0.304418  0.896528  0.591874  0  .  1
   Li  Li4  1  0.682125  0.120895  0.434769  0  .  1
   Li  Li5  1  0.189303  0.122295  0.934859  0  .  1
   Mn  Mn6  1  0.495122  0.500943  0.007995  0  .  1
   Mn  Mn7  1  0.774318  0.487204  0.240293  0  .  1
   Mn  Mn8  1  0.246997  0.015163  0.240287  0  .  1
   Mn  Mn9  1  0.001352  0.498542  0.494504  0  .  1
   Mn  Mn10  1  0.249733  0.501091  0.750766  0  .  1
   Mn  Mn11  1  0.749027  0.500740  0.751624  0  .  1
   Mn  Mn12  1  0.750021  0.001030  0.750767  0  .  1
   O  O13  1  0.604110  0.743656  0.140667  0  .  1
   O  O14  1  0.171697  0.740150  0.130701  0  .  1
   O  O15  1  0.611585  0.300322  0.129918  0  .  1
   O  O16  1  0.875252  0.711936  0.379636  0  .  1
   O  O17  1  0.120000  0.249908  0.129068  0  .  1
   O  O18  1  0.330480  0.259491  0.378616  0  .  1
   O  O19  1  0.892772  0.260865  0.366833  0  .  1
   O  O20  1  0.104983  0.738118  0.625697  0  .  1
   O  O21  1  0.660441  0.730766  0.634228  0  .  1
   O  O22  1  0.879600  0.734234  0.859348  0  .  1
   O  O23  1  0.097113  0.294997  0.633047  0  .  1
   O  O24  1  0.403268  0.704119  0.868591  0  .  1
   O  O25  1  0.620010  0.267904  0.642317  0  .  1
   O  O26  1  0.837102  0.271296  0.867603  0  .  1
   O  O27  1  0.396106  0.263647  0.874310  0  .  1
 
