#\#CIF1.1
##########################################################################
#               Crystallographic Information Format file 
#               Produced by PyCifRW module
# 
#  This is a CIF file.  CIF has been adopted by the International
#  Union of Crystallography as the standard for data archiving and 
#  transmission.
#
#  For information on this file format, follow the CIF links at
#  http://www.iucr.org
##########################################################################

data_Li5Mn12O24
_symmetry_space_group_name_H-M          'P 1'
_cell_length_a                          5.83654948648
_cell_length_b                          6.02082900697
_cell_length_c                          54.0156756303
_cell_angle_alpha                       58.1556690123
_cell_angle_beta                        60.8967245883
_cell_angle_gamma                       61.0201323284
_chemical_name_systematic               'Generated by pymatgen'
_symmetry_Int_Tables_number             1
_chemical_formula_structural            Li5Mn12O24
_chemical_formula_sum                   'Li15 Mn36 O72'
_cell_volume                            1340.83083358
_cell_formula_units_Z                   3
loop_
  _symmetry_equiv_pos_site_id
  _symmetry_equiv_pos_as_xyz
   1  'x, y, z'
 
loop_
  _atom_site_type_symbol
  _atom_site_label
  _atom_site_symmetry_multiplicity
  _atom_site_fract_x
  _atom_site_fract_y
  _atom_site_fract_z
  _atom_site_attached_hydrogens
  _atom_site_B_iso_or_equiv
  _atom_site_occupancy
   Li  Li1  1  0.109077  0.136388  0.016172  0  .  1
   Li  Li2  1  0.132131  0.116778  0.124179  0  .  1
   Li  Li3  1  0.115368  0.135049  0.348223  0  .  1
   Li  Li4  1  0.115474  0.136966  0.459005  0  .  1
   Li  Li5  1  0.868142  0.883192  0.209091  0  .  1
   Li  Li6  1  0.129587  0.119337  0.569214  0  .  1
   Li  Li7  1  0.891374  0.863090  0.317055  0  .  1
   Li  Li8  1  0.133752  0.113724  0.679666  0  .  1
   Li  Li9  1  0.885385  0.866830  0.429164  0  .  1
   Li  Li10  1  0.137519  0.110081  0.790567  0  .  1
   Li  Li11  1  0.877088  0.871916  0.541848  0  .  1
   Li  Li12  1  0.863454  0.885723  0.654023  0  .  1
   Li  Li13  1  0.861926  0.883707  0.765864  0  .  1
   Li  Li14  1  0.865106  0.886272  0.876028  0  .  1
   Li  Li15  1  0.891024  0.863548  0.983803  0  .  1
   Mn  Mn16  1  0.996091  0.508284  0.055643  0  .  1
   Mn  Mn17  1  0.494831  0.508278  0.055620  0  .  1
   Mn  Mn18  1  0.000063  0.499763  0.166667  0  .  1
   Mn  Mn19  1  0.508187  0.486648  0.110716  0  .  1
   Mn  Mn20  1  0.499955  0.000112  0.166654  0  .  1
   Mn  Mn21  1  0.495332  0.000992  0.056472  0  .  1
   Mn  Mn22  1  0.500145  0.499886  0.166656  0  .  1
   Mn  Mn23  1  0.004770  0.492736  0.277395  0  .  1
   Mn  Mn24  1  0.492448  0.514550  0.222342  0  .  1
   Mn  Mn25  1  0.505740  0.492690  0.277387  0  .  1
   Mn  Mn26  1  0.000978  0.500565  0.388647  0  .  1
   Mn  Mn27  1  0.502293  0.500594  0.332641  0  .  1
   Mn  Mn28  1  0.505501  0.000658  0.276480  0  .  1
   Mn  Mn29  1  0.000169  0.503957  0.500067  0  .  1
   Mn  Mn30  1  0.500536  0.500544  0.388617  0  .  1
   Mn  Mn31  1  0.498156  -0.000996  0.500536  0  .  1
   Mn  Mn32  1  0.501173  0.498107  0.444189  0  .  1
   Mn  Mn33  1  0.500573  0.000924  0.388668  0  .  1
   Mn  Mn34  1  0.495811  0.504117  0.500032  0  .  1
   Mn  Mn35  1  -0.000927  0.501363  0.611203  0  .  1
   Mn  Mn36  1  0.508327  0.483897  0.555791  0  .  1
   Mn  Mn37  1  0.498699  0.501513  0.611204  0  .  1
   Mn  Mn38  1  -0.001362  0.501027  0.722362  0  .  1
   Mn  Mn39  1  0.498961  -0.000628  0.722410  0  .  1
   Mn  Mn40  1  0.498821  0.498494  0.666914  0  .  1
   Mn  Mn41  1  0.498936  -0.002073  0.611621  0  .  1
   Mn  Mn42  1  0.498620  0.500913  0.722354  0  .  1
   Mn  Mn43  1  0.498478  0.500715  0.778054  0  .  1
   Mn  Mn44  1  0.497304  0.496583  0.834304  0  .  1
   Mn  Mn45  1  0.003546  0.491922  0.944406  0  .  1
   Mn  Mn46  1  0.488613  0.518062  0.889512  0  .  1
   Mn  Mn47  1  0.499730  0.002508  0.833103  0  .  1
   Mn  Mn48  1  0.504832  0.000180  0.943379  0  .  1
   Mn  Mn49  1  0.505037  0.492011  0.944416  0  .  1
   Mn  Mn50  1  -0.001844  0.496815  0.834254  0  .  1
   Mn  Mn51  1  0.500242  0.501123  -0.000168  0  .  1
   O  O52  1  0.245565  0.277687  0.031026  0  .  1
   O  O53  1  0.250251  0.283456  0.079528  0  .  1
   O  O54  1  0.246987  0.724420  0.031305  0  .  1
   O  O55  1  0.697457  0.277913  0.030995  0  .  1
   O  O56  1  0.275431  0.249429  0.139455  0  .  1
   O  O57  1  0.303173  0.721712  0.081091  0  .  1
   O  O58  1  0.746744  0.726050  0.031198  0  .  1
   O  O59  1  0.277878  0.255006  0.187713  0  .  1
   O  O60  1  0.731101  0.299071  0.081964  0  .  1
   O  O61  1  0.281105  0.699592  0.137431  0  .  1
   O  O62  1  0.720362  0.248612  0.139100  0  .  1
   O  O63  1  0.744515  0.721758  0.081097  0  .  1
   O  O64  1  0.279979  0.751672  0.194157  0  .  1
   O  O65  1  0.255544  0.279042  0.252066  0  .  1
   O  O66  1  0.722273  0.745535  0.145522  0  .  1
   O  O67  1  0.718826  0.300955  0.195847  0  .  1
   O  O68  1  0.269019  0.702130  0.251167  0  .  1
   O  O69  1  0.252365  0.276751  0.301989  0  .  1
   O  O70  1  0.724553  0.750813  0.193812  0  .  1
   O  O71  1  0.697235  0.279082  0.252079  0  .  1
   O  O72  1  0.250896  0.275279  0.363642  0  .  1
   O  O73  1  0.302718  0.722936  0.302116  0  .  1
   O  O74  1  0.753886  0.275113  0.301837  0  .  1
   O  O75  1  0.751386  0.715457  0.253527  0  .  1
   O  O76  1  0.248715  0.282195  0.413324  0  .  1
   O  O77  1  0.249532  0.721245  0.364385  0  .  1
   O  O78  1  0.754533  0.722904  0.302128  0  .  1
   O  O79  1  0.700696  0.276002  0.363593  0  .  1
   O  O80  1  0.246826  0.274171  0.475386  0  .  1
   O  O81  1  0.300441  0.725208  0.413838  0  .  1
   O  O82  1  0.751374  0.278935  0.413111  0  .  1
   O  O83  1  0.752436  0.719456  0.363979  0  .  1
   O  O84  1  0.248845  0.284863  0.524271  0  .  1
   O  O85  1  0.248133  0.723754  0.475503  0  .  1
   O  O86  1  0.699205  0.274092  0.475286  0  .  1
   O  O87  1  0.749029  0.725301  0.413865  0  .  1
   O  O88  1  0.281539  0.244963  0.583663  0  .  1
   O  O89  1  0.297807  0.724690  0.525855  0  .  1
   O  O90  1  0.738812  0.288430  0.526091  0  .  1
   O  O91  1  0.749690  0.719952  0.475621  0  .  1
   O  O92  1  0.276555  0.702086  0.582919  0  .  1
   O  O93  1  0.273114  0.250921  0.633546  0  .  1
   O  O94  1  0.747151  0.724734  0.525864  0  .  1
   O  O95  1  0.722334  0.243843  0.583756  0  .  1
   O  O96  1  0.279208  0.249439  0.694398  0  .  1
   O  O97  1  0.277351  0.750917  0.639155  0  .  1
   O  O98  1  0.726590  0.749865  0.588677  0  .  1
   O  O99  1  0.724707  0.300884  0.638694  0  .  1
   O  O100  1  0.273580  0.699057  0.694700  0  .  1
   O  O101  1  0.274487  0.249665  0.744578  0  .  1
   O  O102  1  0.720370  0.249334  0.694247  0  .  1
   O  O103  1  0.718612  0.750353  0.639163  0  .  1
   O  O104  1  0.280448  0.251425  0.805173  0  .  1
   O  O105  1  0.277725  0.752063  0.750224  0  .  1
   O  O106  1  0.276298  0.698179  0.805624  0  .  1
   O  O107  1  0.724936  0.300562  0.749958  0  .  1
   O  O108  1  0.723775  0.750668  0.700038  0  .  1
   O  O109  1  0.278435  0.248981  0.854916  0  .  1
   O  O110  1  0.722582  0.251114  0.805083  0  .  1
   O  O111  1  0.719119  0.752354  0.750056  0  .  1
   O  O112  1  0.277289  0.757853  0.860895  0  .  1
   O  O113  1  0.255010  0.280034  0.918894  0  .  1
   O  O114  1  0.725628  0.744208  0.811706  0  .  1
   O  O115  1  0.715857  0.301665  0.863042  0  .  1
   O  O116  1  0.266777  0.702450  0.918332  0  .  1
   O  O117  1  0.253544  0.272819  0.968887  0  .  1
   O  O118  1  0.695710  0.280358  0.918870  0  .  1
   O  O119  1  0.718126  0.758153  0.860796  0  .  1
   O  O120  1  0.302527  0.722022  0.969140  0  .  1
   O  O121  1  0.749208  0.716695  0.920599  0  .  1
   O  O122  1  0.752699  0.274922  0.968836  0  .  1
   O  O123  1  0.753212  0.722310  0.969112  0  .  1
 
