#\#CIF1.1
##########################################################################
#               Crystallographic Information Format file 
#               Produced by PyCifRW module
# 
#  This is a CIF file.  CIF has been adopted by the International
#  Union of Crystallography as the standard for data archiving and 
#  transmission.
#
#  For information on this file format, follow the CIF links at
#  http://www.iucr.org
##########################################################################

data_Li5Mn6O12
_symmetry_space_group_name_H-M          'P 1'
_cell_length_a                          6.55207164101
_cell_length_b                          6.55719347938
_cell_length_c                          6.14229660775
_cell_angle_alpha                       76.7393323073
_cell_angle_beta                        67.616370455
_cell_angle_gamma                       97.8014218741
_chemical_name_systematic               'Generated by pymatgen'
_symmetry_Int_Tables_number             1
_chemical_formula_structural            Li5Mn6O12
_chemical_formula_sum                   'Li5 Mn6 O12'
_cell_volume                            230.091385407
_cell_formula_units_Z                   1
loop_
  _symmetry_equiv_pos_site_id
  _symmetry_equiv_pos_as_xyz
   1  'x, y, z'
 
loop_
  _atom_site_type_symbol
  _atom_site_label
  _atom_site_symmetry_multiplicity
  _atom_site_fract_x
  _atom_site_fract_y
  _atom_site_fract_z
  _atom_site_attached_hydrogens
  _atom_site_B_iso_or_equiv
  _atom_site_occupancy
   Li  Li1  1  0.503263  0.001869  0.247042  0  .  1
   Li  Li2  1  0.163404  0.664798  0.252958  0  .  1
   Li  Li3  1  0.507812  0.007237  0.751254  0  .  1
   Li  Li4  1  0.158854  0.659430  0.748746  0  .  1
   Li  Li5  1  0.833333  0.333333  0.250000  0  .  1
   Mn  Mn6  1  0.000285  0.999765  0.997326  0  .  1
   Mn  Mn7  1  0.995163  0.005797  0.501122  0  .  1
   Mn  Mn8  1  0.340532  0.330182  0.997574  0  .  1
   Mn  Mn9  1  0.326135  0.336484  0.502426  0  .  1
   Mn  Mn10  1  0.671504  0.660870  0.998878  0  .  1
   Mn  Mn11  1  0.666382  0.666902  0.502674  0  .  1
   O  O12  1  0.251439  0.016103  0.099356  0  .  1
   O  O13  1  0.243904  0.021769  0.604702  0  .  1
   O  O14  1  0.106892  0.321425  0.352574  0  .  1
   O  O15  1  0.559775  0.345241  0.147426  0  .  1
   O  O16  1  0.106806  0.317807  0.874042  0  .  1
   O  O17  1  0.559861  0.348860  0.625958  0  .  1
   O  O18  1  0.415228  0.650564  0.400644  0  .  1
   O  O19  1  0.422762  0.644898  0.895298  0  .  1
   O  O20  1  0.915755  0.679408  0.108565  0  .  1
   O  O21  1  0.914732  0.693733  0.602038  0  .  1
   O  O22  1  0.750911  0.987259  0.391435  0  .  1
   O  O23  1  0.751935  0.972934  0.897962  0  .  1
 
