#\#CIF1.1
##########################################################################
#               Crystallographic Information Format file 
#               Produced by PyCifRW module
# 
#  This is a CIF file.  CIF has been adopted by the International
#  Union of Crystallography as the standard for data archiving and 
#  transmission.
#
#  For information on this file format, follow the CIF links at
#  http://www.iucr.org
##########################################################################

data_Li5Mn6O16
_symmetry_space_group_name_H-M          'P 1'
_cell_length_a                          5.81745715505
_cell_length_b                          5.81531932642
_cell_length_c                          10.3017836917
_cell_angle_alpha                       106.378784654
_cell_angle_beta                        89.9833582228
_cell_angle_gamma                       119.991446201
_chemical_name_systematic               'Generated by pymatgen'
_symmetry_Int_Tables_number             1
_chemical_formula_structural            Li5Mn6O16
_chemical_formula_sum                   'Li5 Mn6 O16'
_cell_volume                            285.418206137
_cell_formula_units_Z                   1
loop_
  _symmetry_equiv_pos_site_id
  _symmetry_equiv_pos_as_xyz
   1  'x, y, z'
 
loop_
  _atom_site_type_symbol
  _atom_site_label
  _atom_site_symmetry_multiplicity
  _atom_site_fract_x
  _atom_site_fract_y
  _atom_site_fract_z
  _atom_site_attached_hydrogens
  _atom_site_B_iso_or_equiv
  _atom_site_occupancy
   Li  Li1  1  0.687455  0.376188  0.063955  0  .  1
   Li  Li2  1  0.809618  0.619465  0.429244  0  .  1
   Li  Li3  1  0.500014  0.999878  0.499854  0  .  1
   Li  Li4  1  0.190334  0.380438  0.570550  0  .  1
   Li  Li5  1  0.312440  0.624693  0.936658  0  .  1
   Mn  Mn6  1  0.250231  0.499925  0.249774  0  .  1
   Mn  Mn7  1  0.750035  0.999689  0.249749  0  .  1
   Mn  Mn8  1  0.249979  0.999873  0.249768  0  .  1
   Mn  Mn9  1  0.750006  0.000062  0.750182  0  .  1
   Mn  Mn10  1  0.249971  -0.000036  0.750224  0  .  1
   Mn  Mn11  1  0.750037  0.499951  0.750150  0  .  1
   O  O12  1  0.893824  0.787415  0.149400  0  .  1
   O  O13  1  0.381248  0.762231  0.143217  0  .  1
   O  O14  1  0.893771  0.256013  0.149529  0  .  1
   O  O15  1  0.362115  0.255804  0.149450  0  .  1
   O  O16  1  0.603939  0.750607  0.354583  0  .  1
   O  O17  1  0.146438  0.750444  0.354443  0  .  1
   O  O18  1  0.118915  0.237749  0.356690  0  .  1
   O  O19  1  0.603947  0.208027  0.354503  0  .  1
   O  O20  1  0.395980  0.791878  0.645407  0  .  1
   O  O21  1  0.881077  0.762141  0.643272  0  .  1
   O  O22  1  0.853626  0.249558  0.645471  0  .  1
   O  O23  1  0.396009  0.249547  0.645520  0  .  1
   O  O24  1  0.637813  0.744125  0.850553  0  .  1
   O  O25  1  0.106174  0.744003  0.850514  0  .  1
   O  O26  1  0.618794  0.237698  0.856766  0  .  1
   O  O27  1  0.106210  0.212628  0.850575  0  .  1
 
