#\#CIF1.1
##########################################################################
#               Crystallographic Information Format file 
#               Produced by PyCifRW module
# 
#  This is a CIF file.  CIF has been adopted by the International
#  Union of Crystallography as the standard for data archiving and 
#  transmission.
#
#  For information on this file format, follow the CIF links at
#  http://www.iucr.org
##########################################################################

data_Li5MnO5
_symmetry_space_group_name_H-M          'P 1'
_cell_length_a                          3.9235449638
_cell_length_b                          5.14719222528
_cell_length_c                          5.78243193438
_cell_angle_alpha                       72.6003548148
_cell_angle_beta                        89.9970354655
_cell_angle_gamma                       67.5901436706
_chemical_name_systematic               'Generated by pymatgen'
_symmetry_Int_Tables_number             1
_chemical_formula_structural            Li5MnO5
_chemical_formula_sum                   'Li5 Mn1 O5'
_cell_volume                            102.1556458
_cell_formula_units_Z                   1
loop_
  _symmetry_equiv_pos_site_id
  _symmetry_equiv_pos_as_xyz
   1  'x, y, z'
 
loop_
  _atom_site_type_symbol
  _atom_site_label
  _atom_site_symmetry_multiplicity
  _atom_site_fract_x
  _atom_site_fract_y
  _atom_site_fract_z
  _atom_site_attached_hydrogens
  _atom_site_B_iso_or_equiv
  _atom_site_occupancy
   Li  Li1  1  0.678091  0.643908  0.879971  0  .  1
   Li  Li2  1  0.690997  0.609569  0.346943  0  .  1
   Li  Li3  1  0.288443  0.414474  0.683395  0  .  1
   Li  Li4  1  0.309741  0.380494  0.151160  0  .  1
   Li  Li5  1  -0.003005  0.011152  0.515048  0  .  1
   Mn  Mn6  1  0.991801  0.012090  0.015447  0  .  1
   O  O7  1  0.135187  0.727523  0.842684  0  .  1
   O  O8  1  0.491671  0.011874  0.015255  0  .  1
   O  O9  1  0.145082  0.703422  0.328732  0  .  1
   O  O10  1  0.836503  0.320158  0.701816  0  .  1
   O  O11  1  0.850577  0.296515  0.187681  0  .  1
 
