#\#CIF1.1
##########################################################################
#               Crystallographic Information Format file 
#               Produced by PyCifRW module
# 
#  This is a CIF file.  CIF has been adopted by the International
#  Union of Crystallography as the standard for data archiving and 
#  transmission.
#
#  For information on this file format, follow the CIF links at
#  http://www.iucr.org
##########################################################################

data_Li5MnO4
_symmetry_space_group_name_H-M          'P 1'
_cell_length_a                          5.0573292501
_cell_length_b                          7.37379679001
_cell_length_c                          5.1430289501
_cell_angle_alpha                       90.0000787211
_cell_angle_beta                        89.9993029965
_cell_angle_gamma                       90.0001138576
_chemical_name_systematic               'Generated by pymatgen'
_symmetry_Int_Tables_number             1
_chemical_formula_structural            Li5MnO4
_chemical_formula_sum                   'Li10 Mn2 O8'
_cell_volume                            191.792386237
_cell_formula_units_Z                   2
loop_
  _symmetry_equiv_pos_site_id
  _symmetry_equiv_pos_as_xyz
   1  'x, y, z'
 
loop_
  _atom_site_type_symbol
  _atom_site_label
  _atom_site_symmetry_multiplicity
  _atom_site_fract_x
  _atom_site_fract_y
  _atom_site_fract_z
  _atom_site_attached_hydrogens
  _atom_site_B_iso_or_equiv
  _atom_site_occupancy
   Li  Li1  1  0.061112  0.328288  0.925030  0  .  1
   Li  Li2  1  0.061112  0.671711  0.925032  0  .  1
   Li  Li3  1  0.230426  0.690856  0.413802  0  .  1
   Li  Li4  1  0.230427  0.309143  0.413803  0  .  1
   Li  Li5  1  0.278526  0.999999  0.666191  0  .  1
   Li  Li6  1  0.561110  0.171713  0.074970  0  .  1
   Li  Li7  1  0.561111  0.828286  0.074971  0  .  1
   Li  Li8  1  0.730428  0.190856  0.586198  0  .  1
   Li  Li9  1  0.730428  0.809143  0.586197  0  .  1
   Li  Li10  1  0.778526  0.499999  0.333806  0  .  1
   Mn  Mn11  1  0.015691  -0.000000  0.152077  0  .  1
   Mn  Mn12  1  0.515704  0.500002  0.847929  0  .  1
   O  O13  1  0.363031  0.000001  0.295295  0  .  1
   O  O14  1  0.372395  0.500000  0.189556  0  .  1
   O  O15  1  0.397616  0.258871  0.755902  0  .  1
   O  O16  1  0.397616  0.741130  0.755903  0  .  1
   O  O17  1  0.863043  0.500000  0.704701  0  .  1
   O  O18  1  0.872395  0.000001  0.810443  0  .  1
   O  O19  1  0.897614  0.758870  0.244095  0  .  1
   O  O20  1  0.897615  0.241131  0.244098  0  .  1
 
