#\#CIF1.1
##########################################################################
#               Crystallographic Information Format file 
#               Produced by PyCifRW module
# 
#  This is a CIF file.  CIF has been adopted by the International
#  Union of Crystallography as the standard for data archiving and 
#  transmission.
#
#  For information on this file format, follow the CIF links at
#  http://www.iucr.org
##########################################################################

data_Li5Ni9O16
_symmetry_space_group_name_H-M          'P 1'
_cell_length_a                          4.97177019785
_cell_length_b                          11.2757338443
_cell_length_c                          10.3340259221
_cell_angle_alpha                       99.4286399786
_cell_angle_beta                        77.3948683723
_cell_angle_gamma                       80.1096785225
_chemical_name_systematic               'Generated by pymatgen'
_symmetry_Int_Tables_number             1
_chemical_formula_structural            Li5Ni9O16
_chemical_formula_sum                   'Li10 Ni18 O32'
_cell_volume                            544.617233797
_cell_formula_units_Z                   2
loop_
  _symmetry_equiv_pos_site_id
  _symmetry_equiv_pos_as_xyz
   1  'x, y, z'
 
loop_
  _atom_site_type_symbol
  _atom_site_label
  _atom_site_symmetry_multiplicity
  _atom_site_fract_x
  _atom_site_fract_y
  _atom_site_fract_z
  _atom_site_attached_hydrogens
  _atom_site_B_iso_or_equiv
  _atom_site_occupancy
   Li  Li1  1  0.941352  0.057838  0.758656  0  .  1
   Li  Li2  1  0.477787  0.502280  0.004528  0  .  1
   Li  Li3  1  0.877015  0.123925  0.496669  0  .  1
   Li  Li4  1  0.690611  0.311964  0.749152  0  .  1
   Li  Li5  1  0.621889  0.375536  0.500848  0  .  1
   Li  Li6  1  0.435485  0.563575  0.753331  0  .  1
   Li  Li7  1  0.834713  0.185220  0.245472  0  .  1
   Li  Li8  1  0.371148  0.629662  0.491344  0  .  1
   Li  Li9  1  0.193120  0.819890  0.747725  0  .  1
   Li  Li10  1  0.119380  0.867610  0.502275  0  .  1
   Ni  Ni11  1  0.849930  0.650365  0.868358  0  .  1
   Ni  Ni12  1  0.610630  0.904787  0.879771  0  .  1
   Ni  Ni13  1  0.960319  0.533180  0.378825  0  .  1
   Ni  Ni14  1  0.777166  0.717229  0.625393  0  .  1
   Ni  Ni15  1  0.889413  0.594688  0.126186  0  .  1
   Ni  Ni16  1  0.535334  0.970271  0.624607  0  .  1
   Ni  Ni17  1  0.701870  0.782713  0.370229  0  .  1
   Ni  Ni18  1  0.753168  0.249599  0.004436  0  .  1
   Ni  Ni19  1  0.559332  0.437901  0.245564  0  .  1
   Ni  Ni20  1  0.352181  0.154320  0.871175  0  .  1
   Ni  Ni21  1  0.091415  0.404637  0.884360  0  .  1
   Ni  Ni22  1  0.462570  0.037135  0.381642  0  .  1
   Ni  Ni23  1  0.280578  0.221743  0.626971  0  .  1
   Ni  Ni24  1  0.237525  0.754314  0.008391  0  .  1
   Ni  Ni25  1  0.074975  0.933186  0.241609  0  .  1
   Ni  Ni26  1  0.423087  0.092812  0.123814  0  .  1
   Ni  Ni27  1  0.031922  0.465757  0.623029  0  .  1
   Ni  Ni28  1  0.221085  0.282863  0.365640  0  .  1
   O  O29  1  0.940536  0.799574  0.913614  0  .  1
   O  O30  1  0.848041  0.892231  0.683343  0  .  1
   O  O31  1  0.788714  0.489248  0.801732  0  .  1
   O  O32  1  0.979537  0.303738  0.569632  0  .  1
   O  O33  1  0.989005  0.766653  0.190448  0  .  1
   O  O34  1  0.759296  0.959037  0.445016  0  .  1
   O  O35  1  0.736276  0.539443  0.557100  0  .  1
   O  O36  1  0.553204  0.728463  0.804984  0  .  1
   O  O37  1  0.881495  0.378615  0.325597  0  .  1
   O  O38  1  0.650523  0.083420  0.932369  0  .  1
   O  O39  1  0.308142  0.992710  0.800586  0  .  1
   O  O40  1  0.464459  0.795269  0.566657  0  .  1
   O  O41  1  0.661977  0.604080  0.317631  0  .  1
   O  O42  1  0.797466  0.425392  0.060779  0  .  1
   O  O43  1  0.431005  0.308885  0.924403  0  .  1
   O  O44  1  0.576224  0.148057  0.692900  0  .  1
   O  O45  1  0.604860  0.662701  0.031358  0  .  1
   O  O46  1  0.371964  0.887926  0.336386  0  .  1
   O  O47  1  0.707640  0.024799  0.218642  0  .  1
   O  O48  1  0.149512  0.579862  0.935618  0  .  1
   O  O49  1  0.332963  0.383762  0.680368  0  .  1
   O  O50  1  0.523786  0.198252  0.448268  0  .  1
   O  O51  1  0.515034  0.262108  0.189221  0  .  1
   O  O52  1  0.323495  0.920847  0.059552  0  .  1
   O  O53  1  0.266930  0.457891  0.441386  0  .  1
   O  O54  1  0.086829  0.625108  0.686462  0  .  1
   O  O55  1  0.225671  0.062392  0.563538  0  .  1
   O  O56  1  0.045570  0.229609  0.808614  0  .  1
   O  O57  1  0.198016  0.526617  0.212305  0  .  1
   O  O58  1  0.004358  0.694790  0.449414  0  .  1
   O  O59  1  0.162988  0.107638  0.314382  0  .  1
   O  O60  1  0.114484  0.160883  0.037695  0  .  1
 
