#\#CIF1.1
##########################################################################
#               Crystallographic Information Format file 
#               Produced by PyCifRW module
# 
#  This is a CIF file.  CIF has been adopted by the International
#  Union of Crystallography as the standard for data archiving and 
#  transmission.
#
#  For information on this file format, follow the CIF links at
#  http://www.iucr.org
##########################################################################

data_Li5NiO4
_symmetry_space_group_name_H-M          'P 1'
_cell_length_a                          6.35025070751
_cell_length_b                          6.35024241331
_cell_length_c                          4.73463723001
_cell_angle_alpha                       90.0002517152
_cell_angle_beta                        89.9997681457
_cell_angle_gamma                       85.1640360643
_chemical_name_systematic               'Generated by pymatgen'
_symmetry_Int_Tables_number             1
_chemical_formula_structural            Li5NiO4
_chemical_formula_sum                   'Li10 Ni2 O8'
_cell_volume                            190.247561275
_cell_formula_units_Z                   2
loop_
  _symmetry_equiv_pos_site_id
  _symmetry_equiv_pos_as_xyz
   1  'x, y, z'
 
loop_
  _atom_site_type_symbol
  _atom_site_label
  _atom_site_symmetry_multiplicity
  _atom_site_fract_x
  _atom_site_fract_y
  _atom_site_fract_z
  _atom_site_attached_hydrogens
  _atom_site_B_iso_or_equiv
  _atom_site_occupancy
   Li  Li1  1  0.041330  0.950151  0.775206  0  .  1
   Li  Li2  1  0.211377  0.283210  0.692564  0  .  1
   Li  Li3  1  0.283206  0.211376  0.192561  0  .  1
   Li  Li4  1  0.450145  0.541330  0.724797  0  .  1
   Li  Li5  1  0.482608  0.982603  0.750000  0  .  1
   Li  Li6  1  0.541328  0.450142  0.224799  0  .  1
   Li  Li7  1  0.711375  0.783208  0.307434  0  .  1
   Li  Li8  1  0.783214  0.711369  0.807434  0  .  1
   Li  Li9  1  0.950148  0.041335  0.275208  0  .  1
   Li  Li10  1  0.982607  0.482607  0.250000  0  .  1
   Ni  Ni11  1  0.256727  0.756732  0.249996  0  .  1
   Ni  Ni12  1  0.756731  0.256729  0.750003  0  .  1
   O  O13  1  0.998151  0.239401  0.978078  0  .  1
   O  O14  1  0.239396  0.998150  0.478073  0  .  1
   O  O15  1  0.265688  0.487357  0.415111  0  .  1
   O  O16  1  0.487356  0.265689  0.915111  0  .  1
   O  O17  1  0.498148  0.739396  0.021928  0  .  1
   O  O18  1  0.765690  0.987353  0.584888  0  .  1
   O  O19  1  0.739396  0.498146  0.521925  0  .  1
   O  O20  1  0.987355  0.765691  0.084883  0  .  1
 
