#\#CIF1.1
##########################################################################
#               Crystallographic Information Format file 
#               Produced by PyCifRW module
# 
#  This is a CIF file.  CIF has been adopted by the International
#  Union of Crystallography as the standard for data archiving and 
#  transmission.
#
#  For information on this file format, follow the CIF links at
#  http://www.iucr.org
##########################################################################

data_Li6(NiO2)5
_symmetry_space_group_name_H-M          'P 1'
_cell_length_a                          7.93896058965
_cell_length_b                          5.1738424319
_cell_length_c                          5.63596487584
_cell_angle_alpha                       66.9056745186
_cell_angle_beta                        112.887979357
_cell_angle_gamma                       87.5721176216
_chemical_name_systematic               'Generated by pymatgen'
_symmetry_Int_Tables_number             1
_chemical_formula_structural            Li6(NiO2)5
_chemical_formula_sum                   'Li6 Ni5 O10'
_cell_volume                            190.919147906
_cell_formula_units_Z                   1
loop_
  _symmetry_equiv_pos_site_id
  _symmetry_equiv_pos_as_xyz
   1  'x, y, z'
 
loop_
  _atom_site_type_symbol
  _atom_site_label
  _atom_site_symmetry_multiplicity
  _atom_site_fract_x
  _atom_site_fract_y
  _atom_site_fract_z
  _atom_site_attached_hydrogens
  _atom_site_B_iso_or_equiv
  _atom_site_occupancy
   Li  Li1  1  0.255321  0.263602  0.860423  0  .  1
   Li  Li2  1  0.045961  0.822849  0.619365  0  .  1
   Li  Li3  1  0.706342  0.819177  0.130698  0  .  1
   Li  Li4  1  0.553936  0.377719  0.980728  0  .  1
   Li  Li5  1  0.893966  0.380560  0.469740  0  .  1
   Li  Li6  1  0.344223  0.935993  0.739143  0  .  1
   Ni  Ni7  1  0.997409  0.002909  0.001417  0  .  1
   Ni  Ni8  1  0.195519  0.408519  0.207784  0  .  1
   Ni  Ni9  1  0.602775  0.197247  0.598431  0  .  1
   Ni  Ni10  1  0.403827  0.791571  0.391621  0  .  1
   Ni  Ni11  1  0.800568  0.599639  0.800651  0  .  1
   O  O12  1  0.441856  0.214854  0.234505  0  .  1
   O  O13  1  0.220589  0.843514  0.988498  0  .  1
   O  O14  1  0.024435  0.430036  0.809896  0  .  1
   O  O15  1  0.378954  0.357662  0.610584  0  .  1
   O  O16  1  0.840286  0.019614  0.636424  0  .  1
   O  O17  1  0.158251  0.984331  0.365450  0  .  1
   O  O18  1  0.652400  0.604537  0.438173  0  .  1
   O  O19  1  0.947668  0.594291  0.162639  0  .  1
   O  O20  1  0.759790  0.180320  0.963936  0  .  1
   O  O21  1  0.575791  0.770793  0.789762  0  .  1
 
