#\#CIF1.1
##########################################################################
#               Crystallographic Information Format file 
#               Produced by PyCifRW module
# 
#  This is a CIF file.  CIF has been adopted by the International
#  Union of Crystallography as the standard for data archiving and 
#  transmission.
#
#  For information on this file format, follow the CIF links at
#  http://www.iucr.org
##########################################################################

data_Li6Cr5O12
_symmetry_space_group_name_H-M          'P 1'
_cell_length_a                          5.1148203696
_cell_length_b                          8.79636263474
_cell_length_c                          9.83853533157
_cell_angle_alpha                       89.9451961962
_cell_angle_beta                        80.3756845423
_cell_angle_gamma                       90.0388474666
_chemical_name_systematic               'Generated by pymatgen'
_symmetry_Int_Tables_number             1
_chemical_formula_structural            Li6Cr5O12
_chemical_formula_sum                   'Li12 Cr10 O24'
_cell_volume                            436.422930353
_cell_formula_units_Z                   2
loop_
  _symmetry_equiv_pos_site_id
  _symmetry_equiv_pos_as_xyz
   1  'x, y, z'
 
loop_
  _atom_site_type_symbol
  _atom_site_label
  _atom_site_symmetry_multiplicity
  _atom_site_fract_x
  _atom_site_fract_y
  _atom_site_fract_z
  _atom_site_attached_hydrogens
  _atom_site_B_iso_or_equiv
  _atom_site_occupancy
   Li  Li1  1  0.248902  0.236696  0.991886  0  .  1
   Li  Li2  1  0.253464  0.594325  0.990092  0  .  1
   Li  Li3  1  0.244469  0.092775  0.508513  0  .  1
   Li  Li4  1  0.253168  0.735404  0.506319  0  .  1
   Li  Li5  1  0.750660  0.412344  0.990760  0  .  1
   Li  Li6  1  0.743963  0.760782  0.992623  0  .  1
   Li  Li7  1  0.495374  0.751888  0.758493  0  .  1
   Li  Li8  1  0.747889  0.582271  0.504660  0  .  1
   Li  Li9  1  0.764871  0.262067  0.507687  0  .  1
   Li  Li10  1  0.744636  0.912737  0.509146  0  .  1
   Li  Li11  1  0.756927  0.084870  0.994933  0  .  1
   Li  Li12  1  0.994576  0.253722  0.744897  0  .  1
   Cr  Cr13  1  0.500306  0.581150  0.253047  0  .  1
   Cr  Cr14  1  0.000316  0.081360  0.246880  0  .  1
   Cr  Cr15  1  0.005406  0.415626  0.250504  0  .  1
   Cr  Cr16  1  0.001430  0.750320  0.246320  0  .  1
   Cr  Cr17  1  0.499086  0.250525  0.254096  0  .  1
   Cr  Cr18  1  0.495187  0.915677  0.249113  0  .  1
   Cr  Cr19  1  0.013801  0.922337  0.754045  0  .  1
   Cr  Cr20  1  0.480867  0.412234  0.746869  0  .  1
   Cr  Cr21  1  0.512397  0.075148  0.754856  0  .  1
   Cr  Cr22  1  0.988874  0.584313  0.743876  0  .  1
   O  O23  1  0.130512  0.586535  0.355384  0  .  1
   O  O24  1  0.128064  0.244734  0.358259  0  .  1
   O  O25  1  0.129031  0.915468  0.358058  0  .  1
   O  O26  1  0.092598  0.745589  0.856724  0  .  1
   O  O27  1  0.141392  0.070092  0.859170  0  .  1
   O  O28  1  0.372334  0.415605  0.141447  0  .  1
   O  O29  1  0.371639  0.745311  0.142223  0  .  1
   O  O30  1  0.369409  0.086388  0.145321  0  .  1
   O  O31  1  0.139935  0.430024  0.860377  0  .  1
   O  O32  1  0.374285  0.932757  0.639071  0  .  1
   O  O33  1  0.341902  0.571993  0.641292  0  .  1
   O  O34  1  0.407973  0.245382  0.643216  0  .  1
   O  O35  1  0.632494  0.081823  0.360202  0  .  1
   O  O36  1  0.643073  0.415895  0.358100  0  .  1
   O  O37  1  0.630801  0.749220  0.363489  0  .  1
   O  O38  1  0.602185  0.246508  0.864568  0  .  1
   O  O39  1  0.869625  0.249061  0.136550  0  .  1
   O  O40  1  0.857395  0.915869  0.142461  0  .  1
   O  O41  1  0.868355  0.582678  0.139513  0  .  1
   O  O42  1  0.654459  0.932230  0.861835  0  .  1
   O  O43  1  0.637989  0.568655  0.859726  0  .  1
   O  O44  1  0.871752  0.066345  0.637471  0  .  1
   O  O45  1  0.835990  0.429445  0.641050  0  .  1
   O  O46  1  0.900218  0.749828  0.634874  0  .  1
 
