#\#CIF1.1
##########################################################################
#               Crystallographic Information Format file 
#               Produced by PyCifRW module
# 
#  This is a CIF file.  CIF has been adopted by the International
#  Union of Crystallography as the standard for data archiving and 
#  transmission.
#
#  For information on this file format, follow the CIF links at
#  http://www.iucr.org
##########################################################################

data_Li6CrO4
_symmetry_space_group_name_H-M          'P 1'
_cell_length_a                          6.78651899338
_cell_length_b                          6.78839849058
_cell_length_c                          4.60036697983
_cell_angle_alpha                       90.0207702076
_cell_angle_beta                        89.984281207
_cell_angle_gamma                       90.0002896028
_chemical_name_systematic               'Generated by pymatgen'
_symmetry_Int_Tables_number             1
_chemical_formula_structural            Li6CrO4
_chemical_formula_sum                   'Li12 Cr2 O8'
_cell_volume                            211.937023047
_cell_formula_units_Z                   2
loop_
  _symmetry_equiv_pos_site_id
  _symmetry_equiv_pos_as_xyz
   1  'x, y, z'
 
loop_
  _atom_site_type_symbol
  _atom_site_label
  _atom_site_symmetry_multiplicity
  _atom_site_fract_x
  _atom_site_fract_y
  _atom_site_fract_z
  _atom_site_attached_hydrogens
  _atom_site_B_iso_or_equiv
  _atom_site_occupancy
   Li  Li1  1  0.034423  0.534343  0.750016  0  .  1
   Li  Li2  1  0.034267  0.965740  0.749972  0  .  1
   Li  Li3  1  0.250105  0.249915  0.678406  0  .  1
   Li  Li4  1  0.250083  0.249899  0.178406  0  .  1
   Li  Li5  1  0.465671  0.534344  0.750121  0  .  1
   Li  Li6  1  0.465836  0.965740  0.750041  0  .  1
   Li  Li7  1  0.534250  0.034169  0.250013  0  .  1
   Li  Li8  1  0.534338  0.465755  0.249927  0  .  1
   Li  Li9  1  0.749967  0.750085  0.321599  0  .  1
   Li  Li10  1  0.749954  0.750089  0.821599  0  .  1
   Li  Li11  1  0.965730  0.034337  0.250046  0  .  1
   Li  Li12  1  0.965635  0.465567  0.249934  0  .  1
   Cr  Cr13  1  0.249814  0.749653  0.250353  0  .  1
   Cr  Cr14  1  0.750104  0.250488  0.749563  0  .  1
   O  O15  1  0.020686  0.250018  0.941725  0  .  1
   O  O16  1  0.250003  0.020566  0.441596  0  .  1
   O  O17  1  0.250000  0.479224  0.441795  0  .  1
   O  O18  1  0.479466  0.250018  0.941615  0  .  1
   O  O19  1  0.520505  0.749975  0.058446  0  .  1
   O  O20  1  0.750032  0.979463  0.558421  0  .  1
   O  O21  1  0.750037  0.520808  0.558182  0  .  1
   O  O22  1  0.979276  0.749985  0.058225  0  .  1
 
