#\#CIF1.1
##########################################################################
#               Crystallographic Information Format file 
#               Produced by PyCifRW module
# 
#  This is a CIF file.  CIF has been adopted by the International
#  Union of Crystallography as the standard for data archiving and 
#  transmission.
#
#  For information on this file format, follow the CIF links at
#  http://www.iucr.org
##########################################################################

data_Li6CoO4
_symmetry_space_group_name_H-M          'P 1'
_cell_length_a                          4.69181946
_cell_length_b                          6.58732702
_cell_length_c                          6.58732702
_cell_angle_alpha                       90.0
_cell_angle_beta                        90.0
_cell_angle_gamma                       90.0
_chemical_name_systematic               'Generated by pymatgen'
_symmetry_Int_Tables_number             1
_chemical_formula_structural            Li6CoO4
_chemical_formula_sum                   'Li12 Co2 O8'
_cell_volume                            203.591545993
_cell_formula_units_Z                   2
loop_
  _symmetry_equiv_pos_site_id
  _symmetry_equiv_pos_as_xyz
   1  'x, y, z'
 
loop_
  _atom_site_type_symbol
  _atom_site_label
  _atom_site_symmetry_multiplicity
  _atom_site_fract_x
  _atom_site_fract_y
  _atom_site_fract_z
  _atom_site_attached_hydrogens
  _atom_site_B_iso_or_equiv
  _atom_site_occupancy
   Li  Li1  1  0.750000  0.031715  0.968286  0  .  1
   Li  Li2  1  0.249999  0.531715  0.031715  0  .  1
   Li  Li3  1  0.249999  0.968286  0.468286  0  .  1
   Li  Li4  1  0.750000  0.468286  0.531715  0  .  1
   Li  Li5  1  0.249999  0.968286  0.031715  0  .  1
   Li  Li6  1  0.750000  0.468286  0.968286  0  .  1
   Li  Li7  1  0.750000  0.031715  0.531715  0  .  1
   Li  Li8  1  0.249999  0.531715  0.468286  0  .  1
   Li  Li9  1  0.299846  0.749999  0.749999  0  .  1
   Li  Li10  1  0.799847  0.749999  0.749999  0  .  1
   Li  Li11  1  0.700154  0.250000  0.250000  0  .  1
   Li  Li12  1  0.200153  0.250000  0.250000  0  .  1
   O  O13  1  0.963322  0.486599  0.250000  0  .  1
   O  O14  1  0.963322  0.013402  0.250000  0  .  1
   O  O15  1  0.536679  0.749999  0.513402  0  .  1
   O  O16  1  0.036678  0.986599  0.749999  0  .  1
   O  O17  1  0.036678  0.513402  0.749999  0  .  1
   O  O18  1  0.463323  0.250000  0.013402  0  .  1
   O  O19  1  0.463323  0.250000  0.486599  0  .  1
   O  O20  1  0.536679  0.749999  0.986599  0  .  1
   Co  Co21  1  0.249999  0.250000  0.749999  0  .  1
   Co  Co22  1  0.750000  0.749999  0.250000  0  .  1
 
