#\#CIF1.1
##########################################################################
#               Crystallographic Information Format file 
#               Produced by PyCifRW module
# 
#  This is a CIF file.  CIF has been adopted by the International
#  Union of Crystallography as the standard for data archiving and 
#  transmission.
#
#  For information on this file format, follow the CIF links at
#  http://www.iucr.org
##########################################################################

data_Li6FeO6
_symmetry_space_group_name_H-M          'P 1'
_cell_length_a                          5.77521675079
_cell_length_b                          5.49703230535
_cell_length_c                          5.78352757091
_cell_angle_alpha                       122.262601949
_cell_angle_beta                        120.182876088
_cell_angle_gamma                       57.4803184401
_chemical_name_systematic               'Generated by pymatgen'
_symmetry_Int_Tables_number             1
_chemical_formula_structural            Li6FeO6
_chemical_formula_sum                   'Li6 Fe1 O6'
_cell_volume                            124.776629526
_cell_formula_units_Z                   1
loop_
  _symmetry_equiv_pos_site_id
  _symmetry_equiv_pos_as_xyz
   1  'x, y, z'
 
loop_
  _atom_site_type_symbol
  _atom_site_label
  _atom_site_symmetry_multiplicity
  _atom_site_fract_x
  _atom_site_fract_y
  _atom_site_fract_z
  _atom_site_attached_hydrogens
  _atom_site_B_iso_or_equiv
  _atom_site_occupancy
   Li  Li1  1  0.279114  0.291241  0.496258  0  .  1
   Li  Li2  1  0.072598  0.714575  0.280064  0  .  1
   Li  Li3  1  0.492099  0.722984  0.925925  0  .  1
   Li  Li4  1  0.507901  0.277016  0.074075  0  .  1
   Li  Li5  1  0.927402  0.285425  0.719936  0  .  1
   Li  Li6  1  0.720886  0.708759  0.503742  0  .  1
   Fe  Fe7  1  0.000000  0.000000  0.000000  0  .  1
   O  O8  1  0.092102  0.762610  0.650330  0  .  1
   O  O9  1  0.202958  0.240182  0.100069  0  .  1
   O  O10  1  0.649671  0.249674  0.802531  0  .  1
   O  O11  1  0.350329  0.750326  0.197469  0  .  1
   O  O12  1  0.797042  0.759818  0.899931  0  .  1
   O  O13  1  0.907898  0.237390  0.349670  0  .  1
 
