#\#CIF1.1
##########################################################################
#               Crystallographic Information Format file 
#               Produced by PyCifRW module
# 
#  This is a CIF file.  CIF has been adopted by the International
#  Union of Crystallography as the standard for data archiving and 
#  transmission.
#
#  For information on this file format, follow the CIF links at
#  http://www.iucr.org
##########################################################################

data_Li6FeS4
_symmetry_space_group_name_H-M          'P 1'
_cell_length_a                          8.04344552634
_cell_length_b                          8.11080312188
_cell_length_c                          6.28647525333
_cell_angle_alpha                       89.6374028319
_cell_angle_beta                        90.368931344
_cell_angle_gamma                       119.745951475
_chemical_name_systematic               'Generated by pymatgen'
_symmetry_Int_Tables_number             1
_chemical_formula_structural            Li6FeS4
_chemical_formula_sum                   'Li12 Fe2 S8'
_cell_volume                            356.072217243
_cell_formula_units_Z                   2
loop_
  _symmetry_equiv_pos_site_id
  _symmetry_equiv_pos_as_xyz
   1  'x, y, z'
 
loop_
  _atom_site_type_symbol
  _atom_site_label
  _atom_site_symmetry_multiplicity
  _atom_site_fract_x
  _atom_site_fract_y
  _atom_site_fract_z
  _atom_site_attached_hydrogens
  _atom_site_B_iso_or_equiv
  _atom_site_occupancy
   Li  Li1  1  0.151061  0.847347  0.526273  0  .  1
   Li  Li2  1  0.078229  0.542030  0.886692  0  .  1
   Li  Li3  1  0.460648  0.921618  0.876099  0  .  1
   Li  Li4  1  0.148293  0.296548  0.528278  0  .  1
   Li  Li5  1  0.463778  0.541806  0.887394  0  .  1
   Li  Li6  1  0.303830  0.152703  0.026132  0  .  1
   Li  Li7  1  0.696780  0.847646  0.526447  0  .  1
   Li  Li8  1  0.537050  0.457471  0.388469  0  .  1
   Li  Li9  1  0.851398  0.702924  0.027782  0  .  1
   Li  Li10  1  0.539995  0.079656  0.377000  0  .  1
   Li  Li11  1  0.920370  0.457251  0.387574  0  .  1
   Li  Li12  1  0.848551  0.152975  0.025456  0  .  1
   Fe  Fe13  1  0.333107  0.665833  0.253015  0  .  1
   Fe  Fe14  1  0.667110  0.334118  0.753170  0  .  1
   S  S15  1  0.181687  0.825979  0.133343  0  .  1
   S  S16  1  0.330708  0.660557  0.619348  0  .  1
   S  S17  1  0.178035  0.356639  0.136266  0  .  1
   S  S18  1  0.644266  0.826309  0.133539  0  .  1
   S  S19  1  0.355974  0.173842  0.633539  0  .  1
   S  S20  1  0.821657  0.643140  0.636076  0  .  1
   S  S21  1  0.669643  0.339731  0.119065  0  .  1
   S  S22  1  0.817929  0.174172  0.633642  0  .  1
 
