#\#CIF1.1
##########################################################################
#               Crystallographic Information Format file 
#               Produced by PyCifRW module
# 
#  This is a CIF file.  CIF has been adopted by the International
#  Union of Crystallography as the standard for data archiving and 
#  transmission.
#
#  For information on this file format, follow the CIF links at
#  http://www.iucr.org
##########################################################################

data_Li6Mn5O10
_symmetry_space_group_name_H-M          'P 1'
_cell_length_a                          7.93435567272
_cell_length_b                          5.74419010847
_cell_length_c                          5.17595163617
_cell_angle_alpha                       92.8071605646
_cell_angle_beta                        90.9594226768
_cell_angle_gamma                       68.794502172
_chemical_name_systematic               'Generated by pymatgen'
_symmetry_Int_Tables_number             1
_chemical_formula_structural            Li6Mn5O10
_chemical_formula_sum                   'Li6 Mn5 O10'
_cell_volume                            219.664356685
_cell_formula_units_Z                   1
loop_
  _symmetry_equiv_pos_site_id
  _symmetry_equiv_pos_as_xyz
   1  'x, y, z'
 
loop_
  _atom_site_type_symbol
  _atom_site_label
  _atom_site_symmetry_multiplicity
  _atom_site_fract_x
  _atom_site_fract_y
  _atom_site_fract_z
  _atom_site_attached_hydrogens
  _atom_site_B_iso_or_equiv
  _atom_site_occupancy
   Li  Li1  1  0.184109  0.083741  0.600966  0  .  1
   Li  Li2  1  0.429061  0.122112  0.400464  0  .  1
   Li  Li3  1  0.204790  0.683668  0.413840  0  .  1
   Li  Li4  1  0.815573  0.269703  0.601036  0  .  1
   Li  Li5  1  0.568948  0.552268  0.401850  0  .  1
   Li  Li6  1  0.794577  0.889419  0.415302  0  .  1
   Mn  Mn7  1  0.999942  0.020411  0.031108  0  .  1
   Mn  Mn8  1  0.196540  0.430953  0.967093  0  .  1
   Mn  Mn9  1  0.592528  0.212094  0.979418  0  .  1
   Mn  Mn10  1  0.408187  0.804463  0.978979  0  .  1
   Mn  Mn11  1  0.803804  0.626462  0.968949  0  .  1
   O  O12  1  0.000124  0.348679  0.797243  0  .  1
   O  O13  1  0.238987  0.995687  0.247419  0  .  1
   O  O14  1  0.386851  0.166827  0.774540  0  .  1
   O  O15  1  0.000098  0.664096  0.187599  0  .  1
   O  O16  1  0.216712  0.765632  0.771703  0  .  1
   O  O17  1  0.393250  0.432217  0.203138  0  .  1
   O  O18  1  0.613820  0.553733  0.775093  0  .  1
   O  O19  1  0.760695  0.236151  0.248071  0  .  1
   O  O20  1  0.606686  0.825933  0.204085  0  .  1
   O  O21  1  0.784713  0.982403  0.772834  0  .  1
 
