#\#CIF1.1
##########################################################################
#               Crystallographic Information Format file 
#               Produced by PyCifRW module
# 
#  This is a CIF file.  CIF has been adopted by the International
#  Union of Crystallography as the standard for data archiving and 
#  transmission.
#
#  For information on this file format, follow the CIF links at
#  http://www.iucr.org
##########################################################################

data_Li6Ti2O7
_symmetry_space_group_name_H-M          'P 1'
_cell_length_a                          5.10468995325
_cell_length_b                          8.98256024
_cell_length_c                          15.689595613
_cell_angle_alpha                       90.0
_cell_angle_beta                        89.6388002262
_cell_angle_gamma                       90.0
_chemical_name_systematic               'Generated by pymatgen'
_symmetry_Int_Tables_number             1
_chemical_formula_structural            Li6Ti2O7
_chemical_formula_sum                   'Li24 Ti8 O28'
_cell_volume                            719.403634896
_cell_formula_units_Z                   4
loop_
  _symmetry_equiv_pos_site_id
  _symmetry_equiv_pos_as_xyz
   1  'x, y, z'
 
loop_
  _atom_site_type_symbol
  _atom_site_label
  _atom_site_symmetry_multiplicity
  _atom_site_fract_x
  _atom_site_fract_y
  _atom_site_fract_z
  _atom_site_attached_hydrogens
  _atom_site_B_iso_or_equiv
  _atom_site_occupancy
   Li  Li1  1  0.253297  0.526726  0.048077  0  .  1
   Li  Li2  1  0.241480  0.574118  0.798468  0  .  1
   Li  Li3  1  0.262171  0.751046  0.946683  0  .  1
   Li  Li4  1  0.227618  0.802191  0.676757  0  .  1
   Li  Li5  1  0.171444  0.565673  0.574444  0  .  1
   Li  Li6  1  0.143201  0.577543  0.320686  0  .  1
   Li  Li7  1  0.188276  0.733244  0.439250  0  .  1
   Li  Li8  1  0.167315  0.267242  0.915982  0  .  1
   Li  Li9  1  0.252262  0.009812  0.320671  0  .  1
   Li  Li10  1  0.188599  0.770319  0.193573  0  .  1
   Li  Li11  1  0.235895  0.014387  0.843503  0  .  1
   Li  Li12  1  0.192757  0.318482  0.423804  0  .  1
   Li  Li13  1  0.807243  0.818482  0.576196  0  .  1
   Li  Li14  1  0.764105  0.514387  0.156497  0  .  1
   Li  Li15  1  0.811401  0.270319  0.806427  0  .  1
   Li  Li16  1  0.747738  0.509812  0.679329  0  .  1
   Li  Li17  1  0.832685  0.767242  0.084018  0  .  1
   Li  Li18  1  0.811724  0.233244  0.560750  0  .  1
   Li  Li19  1  0.856799  0.077543  0.679314  0  .  1
   Li  Li20  1  0.828556  0.065673  0.425556  0  .  1
   Li  Li21  1  0.772382  0.302191  0.323243  0  .  1
   Li  Li22  1  0.737829  0.251046  0.053317  0  .  1
   Li  Li23  1  0.758520  0.074118  0.201532  0  .  1
   Li  Li24  1  0.746703  0.026726  0.951923  0  .  1
   Ti  Ti25  1  0.294562  0.285746  0.696919  0  .  1
   Ti  Ti26  1  0.315689  0.022536  0.534327  0  .  1
   Ti  Ti27  1  0.259605  0.015299  0.060900  0  .  1
   Ti  Ti28  1  0.279985  0.288842  0.199593  0  .  1
   Ti  Ti29  1  0.720015  0.788842  0.800407  0  .  1
   Ti  Ti30  1  0.740395  0.515299  0.939100  0  .  1
   Ti  Ti31  1  0.684311  0.522536  0.465673  0  .  1
   Ti  Ti32  1  0.705438  0.785746  0.303081  0  .  1
   O  O33  1  0.053275  0.399413  0.263930  0  .  1
   O  O34  1  0.123349  0.064964  0.958955  0  .  1
   O  O35  1  0.179622  0.211599  0.797197  0  .  1
   O  O36  1  0.198365  0.831453  0.551966  0  .  1
   O  O37  1  0.157618  0.468733  0.687038  0  .  1
   O  O38  1  0.156929  0.160109  0.611005  0  .  1
   O  O39  1  0.085303  0.137160  0.144224  0  .  1
   O  O40  1  0.209404  0.815706  0.073557  0  .  1
   O  O41  1  0.218434  0.094623  0.432911  0  .  1
   O  O42  1  0.390605  0.545901  0.931369  0  .  1
   O  O43  1  0.327463  0.523007  0.456269  0  .  1
   O  O44  1  0.344278  0.782280  0.307419  0  .  1
   O  O45  1  0.462093  0.396792  0.120699  0  .  1
   O  O46  1  0.503850  0.195322  0.268448  0  .  1
   O  O47  1  0.496150  0.695322  0.731552  0  .  1
   O  O48  1  0.537907  0.896792  0.879301  0  .  1
   O  O49  1  0.655722  0.282280  0.692581  0  .  1
   O  O50  1  0.672537  0.023007  0.543731  0  .  1
   O  O51  1  0.609395  0.045901  0.068631  0  .  1
   O  O52  1  0.781566  0.594623  0.567089  0  .  1
   O  O53  1  0.790596  0.315706  0.926443  0  .  1
   O  O54  1  0.914697  0.637160  0.855776  0  .  1
   O  O55  1  0.843071  0.660109  0.388995  0  .  1
   O  O56  1  0.842382  0.968733  0.312962  0  .  1
   O  O57  1  0.801635  0.331453  0.448034  0  .  1
   O  O58  1  0.820378  0.711599  0.202803  0  .  1
   O  O59  1  0.876651  0.564964  0.041045  0  .  1
   O  O60  1  0.946725  0.899413  0.736070  0  .  1
 
