#\#CIF1.1
##########################################################################
#               Crystallographic Information Format file 
#               Produced by PyCifRW module
# 
#  This is a CIF file.  CIF has been adopted by the International
#  Union of Crystallography as the standard for data archiving and 
#  transmission.
#
#  For information on this file format, follow the CIF links at
#  http://www.iucr.org
##########################################################################

data_Li6Ti9O20
_symmetry_space_group_name_H-M          'P 1'
_cell_length_a                          5.9832632253
_cell_length_b                          5.98326356557
_cell_length_c                          59.9315931043
_cell_angle_alpha                       60.0051694947
_cell_angle_beta                        60.0051676137
_cell_angle_gamma                       59.9011753724
_chemical_name_systematic               'Generated by pymatgen'
_symmetry_Int_Tables_number             1
_chemical_formula_structural            Li6Ti9O20
_chemical_formula_sum                   'Li24 Ti36 O80'
_cell_volume                            1516.09191255
_cell_formula_units_Z                   4
loop_
  _symmetry_equiv_pos_site_id
  _symmetry_equiv_pos_as_xyz
   1  'x, y, z'
 
loop_
  _atom_site_type_symbol
  _atom_site_label
  _atom_site_symmetry_multiplicity
  _atom_site_fract_x
  _atom_site_fract_y
  _atom_site_fract_z
  _atom_site_attached_hydrogens
  _atom_site_B_iso_or_equiv
  _atom_site_occupancy
   Li  Li1  1  0.007740  0.007740  0.998659  0  .  1
   Li  Li2  1  0.250658  0.250658  0.023911  0  .  1
   Li  Li3  1  0.014529  0.014529  0.095965  0  .  1
   Li  Li4  1  0.253604  0.253604  0.123869  0  .  1
   Li  Li5  1  0.003276  0.003276  0.199041  0  .  1
   Li  Li6  1  0.250600  0.250600  0.224811  0  .  1
   Li  Li7  1  0.636203  0.636203  0.108946  0  .  1
   Li  Li8  1  0.000335  0.000335  0.299915  0  .  1
   Li  Li9  1  0.249872  0.249872  0.325023  0  .  1
   Li  Li10  1  0.000081  0.000081  0.399981  0  .  1
   Li  Li11  1  0.249919  0.249919  0.425019  0  .  1
   Li  Li12  1  0.999400  0.999400  0.600189  0  .  1
   Li  Li13  1  0.249665  0.249665  0.525085  0  .  1
   Li  Li14  1  0.000128  0.000128  0.499977  0  .  1
   Li  Li15  1  0.246724  0.246724  0.625959  0  .  1
   Li  Li16  1  0.996396  0.996396  0.701131  0  .  1
   Li  Li17  1  0.999342  0.999342  0.801089  0  .  1
   Li  Li18  1  0.235471  0.235471  0.729035  0  .  1
   Li  Li19  1  0.613797  0.613797  0.716054  0  .  1
   Li  Li20  1  0.242260  0.242260  0.826341  0  .  1
   Li  Li21  1  0.001603  0.001603  0.901048  0  .  1
   Li  Li22  1  0.248397  0.248397  0.923952  0  .  1
   Li  Li23  1  0.623774  0.623774  0.862966  0  .  1
   Li  Li24  1  0.626226  0.626226  0.962034  0  .  1
   Ti  Ti25  1  0.118613  0.624165  0.063422  0  .  1
   Ti  Ti26  1  0.624165  0.118613  0.063422  0  .  1
   Ti  Ti27  1  0.624960  0.624960  0.009356  0  .  1
   Ti  Ti28  1  0.626153  0.626153  0.062399  0  .  1
   Ti  Ti29  1  0.137763  0.626716  0.160896  0  .  1
   Ti  Ti30  1  0.626716  0.137763  0.160896  0  .  1
   Ti  Ti31  1  0.626577  0.626577  0.160912  0  .  1
   Ti  Ti32  1  0.125912  0.625265  0.262355  0  .  1
   Ti  Ti33  1  0.625265  0.125912  0.262355  0  .  1
   Ti  Ti34  1  0.628872  0.628872  0.211341  0  .  1
   Ti  Ti35  1  0.625251  0.625251  0.262358  0  .  1
   Ti  Ti36  1  0.125058  0.625011  0.362490  0  .  1
   Ti  Ti37  1  0.625011  0.125058  0.362490  0  .  1
   Ti  Ti38  1  0.625100  0.625100  0.312473  0  .  1
   Ti  Ti39  1  0.625015  0.625015  0.362490  0  .  1
   Ti  Ti40  1  0.124942  0.624989  0.462510  0  .  1
   Ti  Ti41  1  0.624989  0.124942  0.462510  0  .  1
   Ti  Ti42  1  0.625000  0.625000  0.412500  0  .  1
   Ti  Ti43  1  0.624985  0.624985  0.462510  0  .  1
   Ti  Ti44  1  0.124088  0.624735  0.562645  0  .  1
   Ti  Ti45  1  0.624735  0.124088  0.562645  0  .  1
   Ti  Ti46  1  0.624900  0.624900  0.512527  0  .  1
   Ti  Ti47  1  0.624749  0.624749  0.562642  0  .  1
   Ti  Ti48  1  0.112237  0.623284  0.664104  0  .  1
   Ti  Ti49  1  0.623284  0.112237  0.664104  0  .  1
   Ti  Ti50  1  0.621128  0.621128  0.613659  0  .  1
   Ti  Ti51  1  0.623423  0.623423  0.664088  0  .  1
   Ti  Ti52  1  0.131387  0.625835  0.761578  0  .  1
   Ti  Ti53  1  0.625835  0.131387  0.761578  0  .  1
   Ti  Ti54  1  0.623847  0.623847  0.762601  0  .  1
   Ti  Ti55  1  0.115321  0.616973  0.863415  0  .  1
   Ti  Ti56  1  0.616973  0.115321  0.863415  0  .  1
   Ti  Ti57  1  0.625040  0.625040  0.815644  0  .  1
   Ti  Ti58  1  0.134679  0.633027  0.961585  0  .  1
   Ti  Ti59  1  0.633027  0.134679  0.961585  0  .  1
   Ti  Ti60  1  0.625000  0.625000  0.912500  0  .  1
   O  O61  1  0.385657  0.385657  0.039929  0  .  1
   O  O62  1  0.382220  0.827172  0.041004  0  .  1
   O  O63  1  0.382655  0.382655  0.084982  0  .  1
   O  O64  1  0.827172  0.382220  0.041004  0  .  1
   O  O65  1  0.369550  0.369550  0.142182  0  .  1
   O  O66  1  0.412538  0.874276  0.084365  0  .  1
   O  O67  1  0.386794  0.386794  0.183959  0  .  1
   O  O68  1  0.369428  0.838892  0.142186  0  .  1
   O  O69  1  0.874276  0.412538  0.084365  0  .  1
   O  O70  1  0.861579  0.861579  0.041719  0  .  1
   O  O71  1  0.871886  0.871886  0.084531  0  .  1
   O  O72  1  0.838892  0.369428  0.142186  0  .  1
   O  O73  1  0.388177  0.388177  0.238747  0  .  1
   O  O74  1  0.415887  0.858587  0.186729  0  .  1
   O  O75  1  0.387827  0.836386  0.238765  0  .  1
   O  O76  1  0.858587  0.415887  0.186729  0  .  1
   O  O77  1  0.387473  0.387473  0.283783  0  .  1
   O  O78  1  0.861193  0.861193  0.141613  0  .  1
   O  O79  1  0.858276  0.858276  0.186735  0  .  1
   O  O80  1  0.836386  0.387827  0.238765  0  .  1
   O  O81  1  0.387648  0.387648  0.338746  0  .  1
   O  O82  1  0.412911  0.862729  0.286197  0  .  1
   O  O83  1  0.387276  0.837396  0.338770  0  .  1
   O  O84  1  0.862729  0.412911  0.286197  0  .  1
   O  O85  1  0.862370  0.862370  0.241265  0  .  1
   O  O86  1  0.387582  0.387582  0.383750  0  .  1
   O  O87  1  0.837396  0.387276  0.338770  0  .  1
   O  O88  1  0.862366  0.862366  0.286218  0  .  1
   O  O89  1  0.412484  0.862715  0.386242  0  .  1
   O  O90  1  0.387650  0.387650  0.438736  0  .  1
   O  O91  1  0.862715  0.412484  0.386242  0  .  1
   O  O92  1  0.862387  0.862387  0.341258  0  .  1
   O  O93  1  0.387613  0.387613  0.483742  0  .  1
   O  O94  1  0.387285  0.837516  0.438758  0  .  1
   O  O95  1  0.862350  0.862350  0.386264  0  .  1
   O  O96  1  0.837516  0.387285  0.438758  0  .  1
   O  O97  1  0.412604  0.862724  0.486230  0  .  1
   O  O98  1  0.387634  0.387634  0.538782  0  .  1
   O  O99  1  0.862724  0.412604  0.486230  0  .  1
   O  O100  1  0.862418  0.862418  0.441250  0  .  1
   O  O101  1  0.387271  0.837089  0.538803  0  .  1
   O  O102  1  0.387630  0.387630  0.583735  0  .  1
   O  O103  1  0.862352  0.862352  0.486254  0  .  1
   O  O104  1  0.837089  0.387271  0.538803  0  .  1
   O  O105  1  0.391724  0.391724  0.638265  0  .  1
   O  O106  1  0.413614  0.862173  0.586235  0  .  1
   O  O107  1  0.388807  0.388807  0.683387  0  .  1
   O  O108  1  0.862173  0.413614  0.586235  0  .  1
   O  O109  1  0.862527  0.862527  0.541217  0  .  1
   O  O110  1  0.391413  0.834113  0.638271  0  .  1
   O  O111  1  0.861823  0.861823  0.586253  0  .  1
   O  O112  1  0.834113  0.391413  0.638271  0  .  1
   O  O113  1  0.411108  0.880572  0.682814  0  .  1
   O  O114  1  0.378114  0.378114  0.740469  0  .  1
   O  O115  1  0.863206  0.863206  0.641041  0  .  1
   O  O116  1  0.880572  0.411108  0.682814  0  .  1
   O  O117  1  0.388421  0.388421  0.783281  0  .  1
   O  O118  1  0.375724  0.837462  0.740635  0  .  1
   O  O119  1  0.837462  0.375724  0.740635  0  .  1
   O  O120  1  0.880450  0.880450  0.682818  0  .  1
   O  O121  1  0.422828  0.867780  0.783996  0  .  1
   O  O122  1  0.390919  0.390919  0.837615  0  .  1
   O  O123  1  0.867780  0.422828  0.783996  0  .  1
   O  O124  1  0.380488  0.380488  0.882534  0  .  1
   O  O125  1  0.384287  0.843764  0.836304  0  .  1
   O  O126  1  0.867345  0.867345  0.740018  0  .  1
   O  O127  1  0.864343  0.864343  0.785071  0  .  1
   O  O128  1  0.843764  0.384287  0.836304  0  .  1
   O  O129  1  0.414600  0.874319  0.887170  0  .  1
   O  O130  1  0.386830  0.386830  0.938387  0  .  1
   O  O131  1  0.874319  0.414600  0.887170  0  .  1
   O  O132  1  0.876060  0.876060  0.841386  0  .  1
   O  O133  1  0.373940  0.373940  0.983614  0  .  1
   O  O134  1  0.375681  0.835400  0.937830  0  .  1
   O  O135  1  0.863170  0.863170  0.886613  0  .  1
   O  O136  1  0.835400  0.375681  0.937830  0  .  1
   O  O137  1  0.406236  0.865713  0.988696  0  .  1
   O  O138  1  0.865713  0.406236  0.988696  0  .  1
   O  O139  1  0.869512  0.869512  0.942466  0  .  1
   O  O140  1  0.859081  0.859081  0.987385  0  .  1
 
