#\#CIF1.1
##########################################################################
#               Crystallographic Information Format file 
#               Produced by PyCifRW module
# 
#  This is a CIF file.  CIF has been adopted by the International
#  Union of Crystallography as the standard for data archiving and 
#  transmission.
#
#  For information on this file format, follow the CIF links at
#  http://www.iucr.org
##########################################################################

data_Li6V5O12
_symmetry_space_group_name_H-M          'P 1'
_cell_length_a                          5.05675811638
_cell_length_b                          5.04650998205
_cell_length_c                          9.54114811298
_cell_angle_alpha                       93.6836614513
_cell_angle_beta                        86.6608455227
_cell_angle_gamma                       63.8573351619
_chemical_name_systematic               'Generated by pymatgen'
_symmetry_Int_Tables_number             1
_chemical_formula_structural            Li6V5O12
_chemical_formula_sum                   'Li6 V5 O12'
_cell_volume                            217.10022949
_cell_formula_units_Z                   1
loop_
  _symmetry_equiv_pos_site_id
  _symmetry_equiv_pos_as_xyz
   1  'x, y, z'
 
loop_
  _atom_site_type_symbol
  _atom_site_label
  _atom_site_symmetry_multiplicity
  _atom_site_fract_x
  _atom_site_fract_y
  _atom_site_fract_z
  _atom_site_attached_hydrogens
  _atom_site_B_iso_or_equiv
  _atom_site_occupancy
   Li  Li1  1  0.760541  0.753642  0.249734  0  .  1
   Li  Li2  1  0.346491  0.839101  0.494508  0  .  1
   Li  Li3  1  0.131396  0.688371  0.009596  0  .  1
   Li  Li4  1  0.839458  0.347535  0.005278  0  .  1
   Li  Li5  1  0.688245  0.128297  0.490687  0  .  1
   Li  Li6  1  0.078733  0.078900  0.249996  0  .  1
   V  V7  1  0.925399  0.927090  0.747219  0  .  1
   V  V8  1  0.569235  0.572201  0.750558  0  .  1
   V  V9  1  0.422839  0.425300  0.242738  0  .  1
   V  V10  1  0.003612  0.487638  0.491374  0  .  1
   V  V11  1  0.483286  0.011438  -0.000191  0  .  1
   O  O12  1  0.676819  0.820132  0.618678  0  .  1
   O  O13  1  0.826751  0.684097  0.877255  0  .  1
   O  O14  1  0.218405  0.928302  0.872197  0  .  1
   O  O15  1  0.453712  0.703049  0.136665  0  .  1
   O  O16  1  0.073702  0.748224  0.370889  0  .  1
   O  O17  1  0.729594  0.453142  0.380262  0  .  1
   O  O18  1  0.248224  0.582361  0.631563  0  .  1
   O  O19  1  0.929755  0.210637  0.628513  0  .  1
   O  O20  1  0.590660  0.264810  0.867324  0  .  1
   O  O21  1  0.159869  0.356764  0.120116  0  .  1
   O  O22  1  0.746580  0.074274  0.133388  0  .  1
   O  O23  1  0.357563  0.175591  0.381662  0  .  1
 
