#\#CIF1.1
##########################################################################
#               Crystallographic Information Format file 
#               Produced by PyCifRW module
# 
#  This is a CIF file.  CIF has been adopted by the International
#  Union of Crystallography as the standard for data archiving and 
#  transmission.
#
#  For information on this file format, follow the CIF links at
#  http://www.iucr.org
##########################################################################

data_Li7(CuO2)6
_symmetry_space_group_name_H-M          'P 1'
_cell_length_a                          5.21292084903
_cell_length_b                          6.85672228131
_cell_length_c                          8.25649875152
_cell_angle_alpha                       101.462872588
_cell_angle_beta                        74.5834725596
_cell_angle_gamma                       80.1995096997
_chemical_name_systematic               'Generated by pymatgen'
_symmetry_Int_Tables_number             1
_chemical_formula_structural            Li7(CuO2)6
_chemical_formula_sum                   'Li7 Cu6 O12'
_cell_volume                            270.941778865
_cell_formula_units_Z                   1
loop_
  _symmetry_equiv_pos_site_id
  _symmetry_equiv_pos_as_xyz
   1  'x, y, z'
 
loop_
  _atom_site_type_symbol
  _atom_site_label
  _atom_site_symmetry_multiplicity
  _atom_site_fract_x
  _atom_site_fract_y
  _atom_site_fract_z
  _atom_site_attached_hydrogens
  _atom_site_B_iso_or_equiv
  _atom_site_occupancy
   Li  Li1  1  0.590861  0.119602  0.920459  0  .  1
   Li  Li2  1  0.500000  0.500000  0.833333  0  .  1
   Li  Li3  1  0.409139  0.880398  0.746208  0  .  1
   Li  Li4  1  0.500937  0.488032  0.501793  0  .  1
   Li  Li5  1  0.408799  0.881959  0.413221  0  .  1
   Li  Li6  1  0.591201  0.118041  0.253445  0  .  1
   Li  Li7  1  0.499063  0.511968  0.164874  0  .  1
   Cu  Cu8  1  0.950668  0.734081  0.964083  0  .  1
   Cu  Cu9  1  0.958849  0.729431  0.626600  0  .  1
   Cu  Cu10  1  0.959121  0.728912  0.295979  0  .  1
   Cu  Cu11  1  0.049332  0.265919  0.702584  0  .  1
   Cu  Cu12  1  0.040879  0.271088  0.370688  0  .  1
   Cu  Cu13  1  0.041151  0.270569  0.040067  0  .  1
   O  O14  1  0.785830  0.336660  0.924888  0  .  1
   O  O15  1  0.704565  0.818939  0.847928  0  .  1
   O  O16  1  0.796486  0.355073  0.594458  0  .  1
   O  O17  1  0.699674  0.794012  0.515585  0  .  1
   O  O18  1  0.779853  0.338754  0.260026  0  .  1
   O  O19  1  0.702721  0.815293  0.190202  0  .  1
   O  O20  1  0.295435  0.181061  0.818738  0  .  1
   O  O21  1  0.214170  0.663340  0.741778  0  .  1
   O  O22  1  0.297279  0.184707  0.476464  0  .  1
   O  O23  1  0.220147  0.661246  0.406641  0  .  1
   O  O24  1  0.300326  0.205988  0.151082  0  .  1
   O  O25  1  0.203514  0.644927  0.072208  0  .  1
 
