#\#CIF1.1
##########################################################################
#               Crystallographic Information Format file 
#               Produced by PyCifRW module
# 
#  This is a CIF file.  CIF has been adopted by the International
#  Union of Crystallography as the standard for data archiving and 
#  transmission.
#
#  For information on this file format, follow the CIF links at
#  http://www.iucr.org
##########################################################################

data_Li7(NiO2)10
_symmetry_space_group_name_H-M          'P 1'
_cell_length_a                          4.97400854788
_cell_length_b                          8.59133568475
_cell_length_c                          8.59133568475
_cell_angle_alpha                       68.6341346087
_cell_angle_beta                        95.349399414
_cell_angle_gamma                       84.650600586
_chemical_name_systematic               'Generated by pymatgen'
_symmetry_Int_Tables_number             1
_chemical_formula_structural            Li7(NiO2)10
_chemical_formula_sum                   'Li7 Ni10 O20'
_cell_volume                            337.197306396
_cell_formula_units_Z                   1
loop_
  _symmetry_equiv_pos_site_id
  _symmetry_equiv_pos_as_xyz
   1  'x, y, z'
 
loop_
  _atom_site_type_symbol
  _atom_site_label
  _atom_site_symmetry_multiplicity
  _atom_site_fract_x
  _atom_site_fract_y
  _atom_site_fract_z
  _atom_site_attached_hydrogens
  _atom_site_B_iso_or_equiv
  _atom_site_occupancy
   Li  Li1  1  0.250000  0.049897  0.549897  0  .  1
   Li  Li2  1  0.250000  0.243728  0.743728  0  .  1
   Li  Li3  1  0.250000  0.456272  0.956272  0  .  1
   Li  Li4  1  0.250000  0.650103  0.150103  0  .  1
   Li  Li5  1  0.750000  0.350000  0.850000  0  .  1
   Li  Li6  1  0.750000  0.750671  0.250671  0  .  1
   Li  Li7  1  0.750000  0.949329  0.449329  0  .  1
   Ni  Ni8  1  0.002248  0.202133  0.197080  0  .  1
   Ni  Ni9  1  0.994448  0.400504  0.401059  0  .  1
   Ni  Ni10  1  0.997514  0.601180  0.598819  0  .  1
   Ni  Ni11  1  0.994448  0.798941  0.799496  0  .  1
   Ni  Ni12  1  0.002248  0.002920  0.997867  0  .  1
   Ni  Ni13  1  0.505552  0.299496  0.298941  0  .  1
   Ni  Ni14  1  0.497752  0.497867  0.502920  0  .  1
   Ni  Ni15  1  0.497752  0.697080  0.702133  0  .  1
   Ni  Ni16  1  0.505552  0.901059  0.900504  0  .  1
   Ni  Ni17  1  0.502486  0.098820  0.101181  0  .  1
   O  O18  1  0.154487  0.009491  0.795478  0  .  1
   O  O19  1  0.139673  0.202097  0.997903  0  .  1
   O  O20  1  0.104574  0.810921  0.592145  0  .  1
   O  O21  1  0.154487  0.404522  0.190509  0  .  1
   O  O22  1  0.104574  0.607855  0.389079  0  .  1
   O  O23  1  0.360327  0.497903  0.702097  0  .  1
   O  O24  1  0.345513  0.690509  0.904522  0  .  1
   O  O25  1  0.395426  0.092145  0.310921  0  .  1
   O  O26  1  0.345513  0.295478  0.509491  0  .  1
   O  O27  1  0.395426  0.889079  0.107855  0  .  1
   O  O28  1  0.613221  0.122413  0.895209  0  .  1
   O  O29  1  0.626240  0.897313  0.694726  0  .  1
   O  O30  1  0.613221  0.304791  0.077587  0  .  1
   O  O31  1  0.649375  0.702943  0.497057  0  .  1
   O  O32  1  0.626240  0.505274  0.302687  0  .  1
   O  O33  1  0.886779  0.577587  0.804791  0  .  1
   O  O34  1  0.886779  0.395209  0.622413  0  .  1
   O  O35  1  0.873760  0.194726  0.397313  0  .  1
   O  O36  1  0.850625  0.997057  0.202943  0  .  1
   O  O37  1  0.873760  0.802687  0.005274  0  .  1
 
