#\#CIF1.1
##########################################################################
#               Crystallographic Information Format file 
#               Produced by PyCifRW module
# 
#  This is a CIF file.  CIF has been adopted by the International
#  Union of Crystallography as the standard for data archiving and 
#  transmission.
#
#  For information on this file format, follow the CIF links at
#  http://www.iucr.org
##########################################################################

data_Li7(NiO2)12
_symmetry_space_group_name_H-M          'P 1'
_cell_length_a                          7.66231608859
_cell_length_b                          8.59588810095
_cell_length_c                          7.66231610136
_cell_angle_alpha                       73.4082276934
_cell_angle_beta                        67.4191676545
_cell_angle_gamma                       105.281383136
_chemical_name_systematic               'Generated by pymatgen'
_symmetry_Int_Tables_number             1
_chemical_formula_structural            Li7(NiO2)12
_chemical_formula_sum                   'Li7 Ni12 O24'
_cell_volume                            404.921553631
_cell_formula_units_Z                   1
loop_
  _symmetry_equiv_pos_site_id
  _symmetry_equiv_pos_as_xyz
   1  'x, y, z'
 
loop_
  _atom_site_type_symbol
  _atom_site_label
  _atom_site_symmetry_multiplicity
  _atom_site_fract_x
  _atom_site_fract_y
  _atom_site_fract_z
  _atom_site_attached_hydrogens
  _atom_site_B_iso_or_equiv
  _atom_site_occupancy
   Li  Li1  1  0.159180  0.500000  0.340820  0  .  1
   Li  Li2  1  0.254464  0.755276  0.498006  0  .  1
   Li  Li3  1  0.501486  0.500000  0.998514  0  .  1
   Li  Li4  1  0.385107  0.235214  0.838830  0  .  1
   Li  Li5  1  0.696887  0.000000  0.303113  0  .  1
   Li  Li6  1  0.746717  0.244724  0.500813  0  .  1
   Li  Li7  1  0.925955  0.764786  0.850107  0  .  1
   Ni  Ni8  1  0.297775  0.876623  0.081569  0  .  1
   Ni  Ni9  1  0.041808  0.123377  0.578848  0  .  1
   Ni  Ni10  1  0.121852  0.379441  0.751104  0  .  1
   Ni  Ni11  1  0.206186  0.621167  0.923171  0  .  1
   Ni  Ni12  1  0.380115  0.128536  0.247544  0  .  1
   Ni  Ni13  1  0.455662  0.378833  0.414981  0  .  1
   Ni  Ni14  1  0.541157  0.624169  0.589345  0  .  1
   Ni  Ni15  1  0.623920  0.871464  0.748422  0  .  1
   Ni  Ni16  1  0.786486  0.375831  0.083013  0  .  1
   Ni  Ni17  1  0.869455  0.620559  0.257589  0  .  1
   Ni  Ni18  1  0.962021  0.872784  0.414491  0  .  1
   Ni  Ni19  1  0.712725  0.127216  0.910763  0  .  1
   O  O20  1  0.084163  0.711661  0.352486  0  .  1
   O  O21  1  0.144024  0.954236  0.513675  0  .  1
   O  O22  1  0.022009  0.550425  0.819523  0  .  1
   O  O23  1  0.391780  0.701631  0.020935  0  .  1
   O  O24  1  0.099151  0.783025  0.987404  0  .  1
   O  O25  1  0.218053  0.056633  0.131036  0  .  1
   O  O26  1  0.483939  0.965298  0.194443  0  .  1
   O  O27  1  0.277434  0.298369  0.309851  0  .  1
   O  O28  1  0.351199  0.559765  0.491825  0  .  1
   O  O29  1  0.229571  0.216975  0.683874  0  .  1
   O  O30  1  0.457841  0.801127  0.630983  0  .  1
   O  O31  1  0.323731  0.461968  0.857731  0  .  1
   O  O32  1  0.680301  0.538032  0.138237  0  .  1
   O  O33  1  0.567890  0.198873  0.343285  0  .  1
   O  O34  1  0.776525  0.791005  0.322851  0  .  1
   O  O35  1  0.630052  0.449575  0.528416  0  .  1
   O  O36  1  0.708724  0.695715  0.704673  0  .  1
   O  O37  1  0.532089  0.045764  0.810212  0  .  1
   O  O38  1  0.812331  0.943367  0.838580  0  .  1
   O  O39  1  0.886144  0.208995  0.014481  0  .  1
   O  O40  1  0.599612  0.304285  0.986992  0  .  1
   O  O41  1  0.948409  0.440235  0.208566  0  .  1
   O  O42  1  0.840259  0.034702  0.481359  0  .  1
   O  O43  1  0.935853  0.288339  0.627497  0  .  1
 
