#\#CIF1.1
##########################################################################
#               Crystallographic Information Format file 
#               Produced by PyCifRW module
# 
#  This is a CIF file.  CIF has been adopted by the International
#  Union of Crystallography as the standard for data archiving and 
#  transmission.
#
#  For information on this file format, follow the CIF links at
#  http://www.iucr.org
##########################################################################

data_Li7(Cu6S5)2
_symmetry_space_group_name_H-M          'P 1'
_cell_length_a                          14.9817644673
_cell_length_b                          3.75458849
_cell_length_c                          15.449439941
_cell_angle_alpha                       90.0
_cell_angle_beta                        92.4577285113
_cell_angle_gamma                       90.0
_chemical_name_systematic               'Generated by pymatgen'
_symmetry_Int_Tables_number             1
_chemical_formula_structural            Li7(Cu6S5)2
_chemical_formula_sum                   'Li14 Cu24 S20'
_cell_volume                            868.237165349
_cell_formula_units_Z                   2
loop_
  _symmetry_equiv_pos_site_id
  _symmetry_equiv_pos_as_xyz
   1  'x, y, z'
 
loop_
  _atom_site_type_symbol
  _atom_site_label
  _atom_site_symmetry_multiplicity
  _atom_site_fract_x
  _atom_site_fract_y
  _atom_site_fract_z
  _atom_site_attached_hydrogens
  _atom_site_B_iso_or_equiv
  _atom_site_occupancy
   Li  Li1  1  0.000000  0.500000  0.000000  0  .  1
   Li  Li2  1  0.124355  0.000000  0.705439  0  .  1
   Li  Li3  1  0.199787  0.000000  0.920971  0  .  1
   Li  Li4  1  0.201620  0.500000  0.384746  0  .  1
   Li  Li5  1  0.274767  0.500000  0.598852  0  .  1
   Li  Li6  1  0.315115  0.000000  0.102894  0  .  1
   Li  Li7  1  0.397013  0.000000  0.303683  0  .  1
   Li  Li8  1  0.500000  0.500000  0.000000  0  .  1
   Li  Li9  1  0.602987  0.000000  0.696317  0  .  1
   Li  Li10  1  0.684885  0.000000  0.897106  0  .  1
   Li  Li11  1  0.725233  0.500000  0.401148  0  .  1
   Li  Li12  1  0.798380  0.500000  0.615254  0  .  1
   Li  Li13  1  0.800213  0.000000  0.079029  0  .  1
   Li  Li14  1  0.875645  0.000000  0.294561  0  .  1
   Cu  Cu15  1  0.995425  0.500000  0.194614  0  .  1
   Cu  Cu16  1  0.052157  0.000000  0.434526  0  .  1
   Cu  Cu17  1  0.083847  0.500000  0.553608  0  .  1
   Cu  Cu18  1  0.086520  0.000000  0.269981  0  .  1
   Cu  Cu19  1  0.113230  0.000000  0.094645  0  .  1
   Cu  Cu20  1  0.196367  0.500000  0.191435  0  .  1
   Cu  Cu21  1  0.314028  0.000000  0.753048  0  .  1
   Cu  Cu22  1  0.341994  0.500000  0.870401  0  .  1
   Cu  Cu23  1  0.397799  0.000000  0.499100  0  .  1
   Cu  Cu24  1  0.448968  0.500000  0.738427  0  .  1
   Cu  Cu25  1  0.484625  0.000000  0.856477  0  .  1
   Cu  Cu26  1  0.489547  0.500000  0.580994  0  .  1
   Cu  Cu27  1  0.510453  0.500000  0.419006  0  .  1
   Cu  Cu28  1  0.515375  0.000000  0.143523  0  .  1
   Cu  Cu29  1  0.551032  0.500000  0.261573  0  .  1
   Cu  Cu30  1  0.602201  0.000000  0.500900  0  .  1
   Cu  Cu31  1  0.658006  0.500000  0.129599  0  .  1
   Cu  Cu32  1  0.685972  0.000000  0.246952  0  .  1
   Cu  Cu33  1  0.803633  0.500000  0.808565  0  .  1
   Cu  Cu34  1  0.886770  0.000000  0.905355  0  .  1
   Cu  Cu35  1  0.913480  0.000000  0.730019  0  .  1
   Cu  Cu36  1  0.916153  0.500000  0.446392  0  .  1
   Cu  Cu37  1  0.947843  0.000000  0.565474  0  .  1
   Cu  Cu38  1  0.004575  0.500000  0.805386  0  .  1
   S  S39  1  0.035823  0.000000  0.877303  0  .  1
   S  S40  1  0.021360  0.500000  0.343629  0  .  1
   S  S41  1  0.169627  0.000000  0.533631  0  .  1
   S  S42  1  0.182039  0.500000  0.043310  0  .  1
   S  S43  1  0.226758  0.500000  0.763591  0  .  1
   S  S44  1  0.236078  0.000000  0.266846  0  .  1
   S  S45  1  0.372326  0.000000  0.950527  0  .  1
   S  S46  1  0.361265  0.500000  0.427270  0  .  1
   S  S47  1  0.418513  0.000000  0.647486  0  .  1
   S  S48  1  0.430547  0.500000  0.167915  0  .  1
   S  S49  1  0.569453  0.500000  0.832085  0  .  1
   S  S50  1  0.581487  0.000000  0.352513  0  .  1
   S  S51  1  0.638735  0.500000  0.572730  0  .  1
   S  S52  1  0.627674  0.000000  0.049473  0  .  1
   S  S53  1  0.763922  0.000000  0.733155  0  .  1
   S  S54  1  0.773242  0.500000  0.236409  0  .  1
   S  S55  1  0.817961  0.500000  0.956690  0  .  1
   S  S56  1  0.830373  0.000000  0.466369  0  .  1
   S  S57  1  0.978640  0.500000  0.656371  0  .  1
   S  S58  1  0.964177  0.000000  0.122697  0  .  1
 
