#\#CIF1.1
##########################################################################
#               Crystallographic Information Format file 
#               Produced by PyCifRW module
# 
#  This is a CIF file.  CIF has been adopted by the International
#  Union of Crystallography as the standard for data archiving and 
#  transmission.
#
#  For information on this file format, follow the CIF links at
#  http://www.iucr.org
##########################################################################

data_Li7(NiO2)11
_symmetry_space_group_name_H-M          'P 1'
_cell_length_a                          4.92451326992
_cell_length_b                          9.80664416344
_cell_length_c                          8.62587232096
_cell_angle_alpha                       65.375502321
_cell_angle_beta                        94.6108557949
_cell_angle_gamma                       85.5060207129
_chemical_name_systematic               'Generated by pymatgen'
_symmetry_Int_Tables_number             1
_chemical_formula_structural            Li7(NiO2)11
_chemical_formula_sum                   'Li7 Ni11 O22'
_cell_volume                            374.572957218
_cell_formula_units_Z                   1
loop_
  _symmetry_equiv_pos_site_id
  _symmetry_equiv_pos_as_xyz
   1  'x, y, z'
 
loop_
  _atom_site_type_symbol
  _atom_site_label
  _atom_site_symmetry_multiplicity
  _atom_site_fract_x
  _atom_site_fract_y
  _atom_site_fract_z
  _atom_site_attached_hydrogens
  _atom_site_B_iso_or_equiv
  _atom_site_occupancy
   Li  Li1  1  0.810117  0.866703  0.767149  0  .  1
   Li  Li2  1  0.545455  0.409091  0.681818  0  .  1
   Li  Li3  1  0.280792  0.951478  0.596487  0  .  1
   Li  Li4  1  0.452574  0.592703  0.318444  0  .  1
   Li  Li5  1  0.918529  0.684750  0.136046  0  .  1
   Li  Li6  1  0.172380  0.133432  0.227591  0  .  1
   Li  Li7  1  0.638335  0.225478  0.045192  0  .  1
   Ni  Ni8  1  0.726363  0.545188  0.909523  0  .  1
   Ni  Ni9  1  0.908877  0.185834  0.635216  0  .  1
   Ni  Ni10  1  0.460815  0.087381  0.817063  0  .  1
   Ni  Ni11  1  0.630095  0.730801  0.546574  0  .  1
   Ni  Ni12  1  0.182032  0.632348  0.728420  0  .  1
   Ni  Ni13  1  0.364546  0.272993  0.454114  0  .  1
   Ni  Ni14  1  0.818754  0.363312  0.274758  0  .  1
   Ni  Ni15  1  0.545455  0.909091  0.181818  0  .  1
   Ni  Ni16  1  0.083215  0.818742  0.367495  0  .  1
   Ni  Ni17  1  0.272155  0.454870  0.088878  0  .  1
   Ni  Ni18  1  0.007694  0.999440  0.996141  0  .  1
   O  O19  1  0.758334  0.192891  0.825241  0  .  1
   O  O20  1  0.696393  0.907362  0.966758  0  .  1
   O  O21  1  0.835955  0.547979  0.700756  0  .  1
   O  O22  1  0.422186  0.445024  0.897499  0  .  1
   O  O23  1  0.589115  0.075410  0.627566  0  .  1
   O  O24  1  0.501794  0.742772  0.736071  0  .  1
   O  O25  1  0.945950  0.822916  0.565549  0  .  1
   O  O26  1  0.044043  0.637006  0.924933  0  .  1
   O  O27  1  0.668723  0.373158  0.466138  0  .  1
   O  O28  1  0.254954  0.270202  0.662881  0  .  1
   O  O29  1  0.144959  0.995265  0.798088  0  .  1
   O  O30  1  0.864337  0.016037  0.182815  0  .  1
   O  O31  1  0.755794  0.729537  0.341014  0  .  1
   O  O32  1  0.332575  0.625291  0.538395  0  .  1
   O  O33  1  0.483777  0.271984  0.246411  0  .  1
   O  O34  1  0.046866  0.181176  0.438703  0  .  1
   O  O35  1  0.957436  0.345455  0.088410  0  .  1
   O  O36  1  0.394516  0.910820  0.396878  0  .  1
   O  O37  1  0.133473  0.472727  0.275226  0  .  1
   O  O38  1  0.607132  0.546197  0.117225  0  .  1
   O  O39  1  0.335115  0.088645  0.022623  0  .  1
   O  O40  1  0.226572  0.802145  0.180821  0  .  1
 
