#\#CIF1.1
##########################################################################
#               Crystallographic Information Format file 
#               Produced by PyCifRW module
# 
#  This is a CIF file.  CIF has been adopted by the International
#  Union of Crystallography as the standard for data archiving and 
#  transmission.
#
#  For information on this file format, follow the CIF links at
#  http://www.iucr.org
##########################################################################

data_Li7Cr5O12
_symmetry_space_group_name_H-M          'P 1'
_cell_length_a                          5.07741773869
_cell_length_b                          5.09347868945
_cell_length_c                          9.7868334775
_cell_angle_alpha                       84.9876071088
_cell_angle_beta                        100.095837145
_cell_angle_gamma                       119.895745573
_chemical_name_systematic               'Generated by pymatgen'
_symmetry_Int_Tables_number             1
_chemical_formula_structural            Li7Cr5O12
_chemical_formula_sum                   'Li7 Cr5 O12'
_cell_volume                            216.027105695
_cell_formula_units_Z                   1
loop_
  _symmetry_equiv_pos_site_id
  _symmetry_equiv_pos_as_xyz
   1  'x, y, z'
 
loop_
  _atom_site_type_symbol
  _atom_site_label
  _atom_site_symmetry_multiplicity
  _atom_site_fract_x
  _atom_site_fract_y
  _atom_site_fract_z
  _atom_site_attached_hydrogens
  _atom_site_B_iso_or_equiv
  _atom_site_occupancy
   Li  Li1  1  0.995373  0.502991  0.003726  0  .  1
   Li  Li2  1  0.338320  0.172131  0.004084  0  .  1
   Li  Li3  1  0.155517  0.824020  0.496085  0  .  1
   Li  Li4  1  0.507618  0.502991  0.496274  0  .  1
   Li  Li5  1  0.833812  0.172131  0.495916  0  .  1
   Li  Li6  1  0.668504  0.824020  0.003915  0  .  1
   Li  Li7  1  0.750563  0.501125  0.250000  0  .  1
   Cr  Cr8  1  0.086498  0.172998  0.250000  0  .  1
   Cr  Cr9  1  0.251181  0.502362  0.750000  0  .  1
   Cr  Cr10  1  0.584288  0.168576  0.750000  0  .  1
   Cr  Cr11  1  0.417185  0.834372  0.250000  0  .  1
   Cr  Cr12  1  0.918002  0.836003  0.750000  0  .  1
   O  O13  1  0.212912  0.168989  0.636799  0  .  1
   O  O14  1  0.420257  0.134721  0.361756  0  .  1
   O  O15  1  0.147509  0.499300  0.362027  0  .  1
   O  O16  1  0.714464  0.134721  0.138244  0  .  1
   O  O17  1  0.956077  0.168989  0.863201  0  .  1
   O  O18  1  0.351791  0.499300  0.137973  0  .  1
   O  O19  1  0.623241  0.501672  0.865657  0  .  1
   O  O20  1  0.068813  0.853195  0.137801  0  .  1
   O  O21  1  0.289119  0.835261  0.863242  0  .  1
   O  O22  1  0.878432  0.501672  0.634343  0  .  1
   O  O23  1  0.546143  0.835261  0.636758  0  .  1
   O  O24  1  0.784383  0.853195  0.362199  0  .  1
 
