#\#CIF1.1
##########################################################################
#               Crystallographic Information Format file 
#               Produced by PyCifRW module
# 
#  This is a CIF file.  CIF has been adopted by the International
#  Union of Crystallography as the standard for data archiving and 
#  transmission.
#
#  For information on this file format, follow the CIF links at
#  http://www.iucr.org
##########################################################################

data_Li7Co5O12
_symmetry_space_group_name_H-M          'P 1'
_cell_length_a                          4.90904792181
_cell_length_b                          4.90350926411
_cell_length_c                          9.60966606677
_cell_angle_alpha                       84.9911107145
_cell_angle_beta                        100.045116439
_cell_angle_gamma                       120.03736855
_chemical_name_systematic               'Generated by pymatgen'
_symmetry_Int_Tables_number             1
_chemical_formula_structural            Li7Co5O12
_chemical_formula_sum                   'Li7 Co5 O12'
_cell_volume                            197.183496497
_cell_formula_units_Z                   1
loop_
  _symmetry_equiv_pos_site_id
  _symmetry_equiv_pos_as_xyz
   1  'x, y, z'
 
loop_
  _atom_site_type_symbol
  _atom_site_label
  _atom_site_symmetry_multiplicity
  _atom_site_fract_x
  _atom_site_fract_y
  _atom_site_fract_z
  _atom_site_attached_hydrogens
  _atom_site_B_iso_or_equiv
  _atom_site_occupancy
   Li  Li1  1  0.993804  0.499857  0.000804  0  .  1
   Li  Li2  1  0.339709  0.172651  0.001255  0  .  1
   Li  Li3  1  0.160191  0.827037  0.499492  0  .  1
   Li  Li4  1  0.506052  0.499857  0.499196  0  .  1
   Li  Li5  1  0.832942  0.172651  0.498745  0  .  1
   Li  Li6  1  0.666846  0.827037  0.000508  0  .  1
   Li  Li7  1  0.748247  0.496493  0.250000  0  .  1
   Co  Co8  1  0.082915  0.165829  0.250000  0  .  1
   Co  Co9  1  0.251595  0.503190  0.750000  0  .  1
   Co  Co10  1  0.584633  0.169267  0.750000  0  .  1
   Co  Co11  1  0.414125  0.828252  0.250000  0  .  1
   Co  Co12  1  0.918563  0.837125  0.750000  0  .  1
   O  O13  1  0.214277  0.169599  0.642086  0  .  1
   O  O14  1  0.422089  0.137147  0.361842  0  .  1
   O  O15  1  0.143321  0.496927  0.361434  0  .  1
   O  O16  1  0.715059  0.137147  0.138158  0  .  1
   O  O17  1  0.955321  0.169599  0.857914  0  .  1
   O  O18  1  0.353606  0.496927  0.138566  0  .  1
   O  O19  1  0.622178  0.503115  0.859851  0  .  1
   O  O20  1  0.075000  0.856842  0.138067  0  .  1
   O  O21  1  0.288796  0.836748  0.857906  0  .  1
   O  O22  1  0.880937  0.503115  0.640149  0  .  1
   O  O23  1  0.547952  0.836748  0.642094  0  .  1
   O  O24  1  0.781842  0.856842  0.361933  0  .  1
 
