#\#CIF1.1
##########################################################################
#               Crystallographic Information Format file 
#               Produced by PyCifRW module
# 
#  This is a CIF file.  CIF has been adopted by the International
#  Union of Crystallography as the standard for data archiving and 
#  transmission.
#
#  For information on this file format, follow the CIF links at
#  http://www.iucr.org
##########################################################################

data_Li7Cr2O8
_symmetry_space_group_name_H-M          'P 1'
_cell_length_a                          7.83234422955
_cell_length_b                          5.17662090192
_cell_length_c                          5.18608141651
_cell_angle_alpha                       68.5306738
_cell_angle_beta                        109.593899365
_cell_angle_gamma                       96.9639383066
_chemical_name_systematic               'Generated by pymatgen'
_symmetry_Int_Tables_number             1
_chemical_formula_structural            Li7Cr2O8
_chemical_formula_sum                   'Li7 Cr2 O8'
_cell_volume                            184.348706931
_cell_formula_units_Z                   1
loop_
  _symmetry_equiv_pos_site_id
  _symmetry_equiv_pos_as_xyz
   1  'x, y, z'
 
loop_
  _atom_site_type_symbol
  _atom_site_label
  _atom_site_symmetry_multiplicity
  _atom_site_fract_x
  _atom_site_fract_y
  _atom_site_fract_z
  _atom_site_attached_hydrogens
  _atom_site_B_iso_or_equiv
  _atom_site_occupancy
   Li  Li1  1  0.994631  0.762806  0.232302  0  .  1
   Li  Li2  1  0.202367  0.276718  0.404421  0  .  1
   Li  Li3  1  0.452263  0.741402  0.491160  0  .  1
   Li  Li4  1  0.562416  0.261270  0.510676  0  .  1
   Li  Li5  1  0.588715  0.755080  0.088089  0  .  1
   Li  Li6  1  0.802566  0.711072  0.611529  0  .  1
   Li  Li7  1  0.989114  0.240239  0.760065  0  .  1
   Cr  Cr8  1  0.235064  0.713600  0.837390  0  .  1
   Cr  Cr9  1  0.762803  0.275640  0.151483  0  .  1
   O  O10  1  0.039776  0.838626  0.841453  0  .  1
   O  O11  1  0.171404  0.518051  0.614823  0  .  1
   O  O12  1  0.378746  0.961973  0.688962  0  .  1
   O  O13  1  0.365951  0.543750  0.197088  0  .  1
   O  O14  1  0.633095  0.479055  0.796383  0  .  1
   O  O15  1  0.631636  0.002511  0.328719  0  .  1
   O  O16  1  0.802163  0.500892  0.365456  0  .  1
   O  O17  1  0.972506  0.163370  0.155323  0  .  1
 
