#\#CIF1.1
##########################################################################
#               Crystallographic Information Format file 
#               Produced by PyCifRW module
# 
#  This is a CIF file.  CIF has been adopted by the International
#  Union of Crystallography as the standard for data archiving and 
#  transmission.
#
#  For information on this file format, follow the CIF links at
#  http://www.iucr.org
##########################################################################

data_Li7Fe5O12
_symmetry_space_group_name_H-M          'P 1'
_cell_length_a                          5.10713080783
_cell_length_b                          5.10713136999
_cell_length_c                          9.66784869799
_cell_angle_alpha                       85.5402078626
_cell_angle_beta                        94.4597964474
_cell_angle_gamma                       61.7897433838
_chemical_name_systematic               'Generated by pymatgen'
_symmetry_Int_Tables_number             1
_chemical_formula_structural            Li7Fe5O12
_chemical_formula_sum                   'Li7 Fe5 O12'
_cell_volume                            219.649139335
_cell_formula_units_Z                   1
loop_
  _symmetry_equiv_pos_site_id
  _symmetry_equiv_pos_as_xyz
   1  'x, y, z'
 
loop_
  _atom_site_type_symbol
  _atom_site_label
  _atom_site_symmetry_multiplicity
  _atom_site_fract_x
  _atom_site_fract_y
  _atom_site_fract_z
  _atom_site_attached_hydrogens
  _atom_site_B_iso_or_equiv
  _atom_site_occupancy
   Li  Li1  1  0.251480  0.251480  0.750000  0  .  1
   Li  Li2  1  0.171770  0.656050  0.507991  0  .  1
   Li  Li3  1  0.332941  0.840697  0.994204  0  .  1
   Li  Li4  1  0.656050  0.171770  0.992009  0  .  1
   Li  Li5  1  0.840697  0.332941  0.505796  0  .  1
   Li  Li6  1  0.746081  0.746081  0.250000  0  .  1
   Li  Li7  1  0.922962  0.922962  0.750000  0  .  1
   Fe  Fe8  1  0.078038  0.078038  0.250000  0  .  1
   Fe  Fe9  1  0.000026  0.511765  0.991870  0  .  1
   Fe  Fe10  1  0.511765  0.000026  0.508130  0  .  1
   Fe  Fe11  1  0.420673  0.420673  0.250000  0  .  1
   Fe  Fe12  1  0.578874  0.578874  0.750000  0  .  1
   O  O13  1  0.925044  0.253959  0.866243  0  .  1
   O  O14  1  0.253959  0.925044  0.633757  0  .  1
   O  O15  1  0.157134  0.339991  0.379497  0  .  1
   O  O16  1  0.339991  0.157134  0.120503  0  .  1
   O  O17  1  0.290579  0.546961  0.872448  0  .  1
   O  O18  1  0.546961  0.290579  0.627552  0  .  1
   O  O19  1  0.435423  0.729441  0.366914  0  .  1
   O  O20  1  0.729441  0.435423  0.133086  0  .  1
   O  O21  1  0.639853  0.839077  0.876984  0  .  1
   O  O22  1  0.839077  0.639853  0.623016  0  .  1
   O  O23  1  0.772735  0.058447  0.370721  0  .  1
   O  O24  1  0.058447  0.772735  0.129279  0  .  1
 
