#\#CIF1.1
##########################################################################
#               Crystallographic Information Format file 
#               Produced by PyCifRW module
# 
#  This is a CIF file.  CIF has been adopted by the International
#  Union of Crystallography as the standard for data archiving and 
#  transmission.
#
#  For information on this file format, follow the CIF links at
#  http://www.iucr.org
##########################################################################

data_Li7Fe3O8
_symmetry_space_group_name_H-M          'P 1'
_cell_length_a                          10.5395620836
_cell_length_b                          7.75152218545
_cell_length_c                          5.55052104879
_cell_angle_alpha                       109.13975299
_cell_angle_beta                        99.9392083434
_cell_angle_gamma                       67.8138611629
_chemical_name_systematic               'Generated by pymatgen'
_symmetry_Int_Tables_number             1
_chemical_formula_structural            Li7Fe3O8
_chemical_formula_sum                   'Li14 Fe6 O16'
_cell_volume                            396.062488205
_cell_formula_units_Z                   2
loop_
  _symmetry_equiv_pos_site_id
  _symmetry_equiv_pos_as_xyz
   1  'x, y, z'
 
loop_
  _atom_site_type_symbol
  _atom_site_label
  _atom_site_symmetry_multiplicity
  _atom_site_fract_x
  _atom_site_fract_y
  _atom_site_fract_z
  _atom_site_attached_hydrogens
  _atom_site_B_iso_or_equiv
  _atom_site_occupancy
   Li  Li1  1  0.066627  0.883565  0.715201  0  .  1
   Li  Li2  1  0.053652  0.432248  0.682879  0  .  1
   Li  Li3  1  0.334395  0.797378  0.856373  0  .  1
   Li  Li4  1  0.277645  0.452161  0.532449  0  .  1
   Li  Li5  1  0.438961  0.639662  0.419220  0  .  1
   Li  Li6  1  0.220373  0.032478  0.539950  0  .  1
   Li  Li7  1  0.516156  0.936858  0.715984  0  .  1
   Li  Li8  1  0.483844  0.063142  0.284016  0  .  1
   Li  Li9  1  0.779627  0.967522  0.460050  0  .  1
   Li  Li10  1  0.561039  0.360338  0.580780  0  .  1
   Li  Li11  1  0.722355  0.547839  0.467551  0  .  1
   Li  Li12  1  0.665605  0.202622  0.143627  0  .  1
   Li  Li13  1  0.946348  0.567752  0.317121  0  .  1
   Li  Li14  1  0.933373  0.116435  0.284799  0  .  1
   Fe  Fe15  1  0.145795  0.726096  0.191815  0  .  1
   Fe  Fe16  1  0.161936  0.171119  0.052388  0  .  1
   Fe  Fe17  1  0.378200  0.309878  0.940113  0  .  1
   Fe  Fe18  1  0.621800  0.690122  0.059887  0  .  1
   Fe  Fe19  1  0.838064  0.828881  0.947612  0  .  1
   Fe  Fe20  1  0.854205  0.273904  0.808185  0  .  1
   O  O21  1  0.154590  0.936512  0.090333  0  .  1
   O  O22  1  0.236992  0.748499  0.513779  0  .  1
   O  O23  1  0.046660  0.186204  0.733751  0  .  1
   O  O24  1  0.124155  0.363991  0.350673  0  .  1
   O  O25  1  0.203136  0.510039  0.899947  0  .  1
   O  O26  1  0.341037  0.071276  0.923526  0  .  1
   O  O27  1  0.539847  0.785696  0.367608  0  .  1
   O  O28  1  0.518140  0.631751  0.764352  0  .  1
   O  O29  1  0.481860  0.368249  0.235648  0  .  1
   O  O30  1  0.460153  0.214304  0.632392  0  .  1
   O  O31  1  0.658963  0.928724  0.076474  0  .  1
   O  O32  1  0.796864  0.489961  0.100053  0  .  1
   O  O33  1  0.875845  0.636009  0.649327  0  .  1
   O  O34  1  0.953340  0.813796  0.266249  0  .  1
   O  O35  1  0.763008  0.251501  0.486221  0  .  1
   O  O36  1  0.845410  0.063488  0.909667  0  .  1
 
