#\#CIF1.1
##########################################################################
#               Crystallographic Information Format file 
#               Produced by PyCifRW module
# 
#  This is a CIF file.  CIF has been adopted by the International
#  Union of Crystallography as the standard for data archiving and 
#  transmission.
#
#  For information on this file format, follow the CIF links at
#  http://www.iucr.org
##########################################################################

data_Li7Mn8O20
_symmetry_space_group_name_H-M          'P 1'
_cell_length_a                          5.83622275792
_cell_length_b                          5.83570256357
_cell_length_c                          24.1566735216
_cell_angle_alpha                       97.3018474411
_cell_angle_beta                        90.3293271963
_cell_angle_gamma                       59.8291959368
_chemical_name_systematic               'Generated by pymatgen'
_symmetry_Int_Tables_number             1
_chemical_formula_structural            Li7Mn8O20
_chemical_formula_sum                   'Li14 Mn16 O40'
_cell_volume                            703.892410247
_cell_formula_units_Z                   2
loop_
  _symmetry_equiv_pos_site_id
  _symmetry_equiv_pos_as_xyz
   1  'x, y, z'
 
loop_
  _atom_site_type_symbol
  _atom_site_label
  _atom_site_symmetry_multiplicity
  _atom_site_fract_x
  _atom_site_fract_y
  _atom_site_fract_z
  _atom_site_attached_hydrogens
  _atom_site_B_iso_or_equiv
  _atom_site_occupancy
   Li  Li1  1  0.655317  0.702352  0.048269  0  .  1
   Li  Li2  1  0.601563  0.802474  0.197375  0  .  1
   Li  Li3  1  0.996445  0.993673  0.998462  0  .  1
   Li  Li4  1  0.249936  0.500714  0.256360  0  .  1
   Li  Li5  1  0.526490  0.949262  0.424121  0  .  1
   Li  Li6  1  0.923964  0.152006  0.225365  0  .  1
   Li  Li7  1  0.205511  0.594741  0.393328  0  .  1
   Li  Li8  1  0.849739  0.303465  0.452267  0  .  1
   Li  Li9  1  0.799382  0.393484  0.601332  0  .  1
   Li  Li10  1  0.920932  0.651779  0.724936  0  .  1
   Li  Li11  1  0.060006  0.906504  0.848620  0  .  1
   Li  Li12  1  0.457957  0.105052  0.652687  0  .  1
   Li  Li13  1  0.385724  0.195218  0.802207  0  .  1
   Li  Li14  1  0.528791  0.448166  0.925683  0  .  1
   Mn  Mn15  1  0.326562  0.349082  0.022964  0  .  1
   Mn  Mn16  1  0.123987  0.754863  0.125064  0  .  1
   Mn  Mn17  1  0.122620  0.250096  0.125158  0  .  1
   Mn  Mn18  1  0.628935  0.248371  0.124899  0  .  1
   Mn  Mn19  1  0.727134  0.548422  0.324655  0  .  1
   Mn  Mn20  1  0.824134  0.849489  0.524848  0  .  1
   Mn  Mn21  1  0.227325  0.048996  0.324242  0  .  1
   Mn  Mn22  1  0.329524  0.848789  0.524541  0  .  1
   Mn  Mn23  1  0.728266  0.047606  0.324956  0  .  1
   Mn  Mn24  1  0.125316  0.748813  0.627095  0  .  1
   Mn  Mn25  1  0.330050  0.343162  0.524843  0  .  1
   Mn  Mn26  1  0.425356  0.649559  0.725559  0  .  1
   Mn  Mn27  1  0.526228  0.950154  0.924650  0  .  1
   Mn  Mn28  1  0.724088  0.551776  0.825006  0  .  1
   Mn  Mn29  1  0.924439  0.150392  0.725783  0  .  1
   Mn  Mn30  1  0.023927  0.450236  0.924561  0  .  1
   O  O31  1  0.792111  0.958764  0.166220  0  .  1
   O  O32  1  0.253072  0.958277  0.166213  0  .  1
   O  O33  1  0.011387  0.532842  0.077752  0  .  1
   O  O34  1  0.456452  0.531641  0.076269  0  .  1
   O  O35  1  0.059299  0.881567  0.282208  0  .  1
   O  O36  1  0.453630  0.088555  0.077734  0  .  1
   O  O37  1  0.278869  0.446467  0.166926  0  .  1
   O  O38  1  0.973016  0.054707  0.081803  0  .  1
   O  O39  1  0.788038  0.422471  0.165746  0  .  1
   O  O40  1  0.575652  0.851981  0.280944  0  .  1
   O  O41  1  0.393517  0.758828  0.366804  0  .  1
   O  O42  1  0.851362  0.758028  0.367271  0  .  1
   O  O43  1  0.059358  0.338388  0.281797  0  .  1
   O  O44  1  0.602621  0.338400  0.282654  0  .  1
   O  O45  1  0.662430  0.679493  0.483454  0  .  1
   O  O46  1  0.880981  0.245086  0.368358  0  .  1
   O  O47  1  0.174671  0.650806  0.482735  0  .  1
   O  O48  1  0.394335  0.215343  0.366891  0  .  1
   O  O49  1  0.996685  0.565401  0.573530  0  .  1
   O  O50  1  0.441090  0.566063  0.572180  0  .  1
   O  O51  1  0.259769  0.937233  0.678109  0  .  1
   O  O52  1  0.662982  0.140978  0.484013  0  .  1
   O  O53  1  0.200028  0.140950  0.483435  0  .  1
   O  O54  1  0.816499  0.945780  0.674167  0  .  1
   O  O55  1  0.479981  0.043030  0.568099  0  .  1
   O  O56  1  0.275681  0.487008  0.673792  0  .  1
   O  O57  1  0.088718  0.854666  0.766528  0  .  1
   O  O58  1  0.999077  0.008126  0.572180  0  .  1
   O  O59  1  0.758947  0.440518  0.683248  0  .  1
   O  O60  1  0.574019  0.811820  0.774851  0  .  1
   O  O61  1  0.588672  0.363271  0.773010  0  .  1
   O  O62  1  0.033132  0.353303  0.774810  0  .  1
   O  O63  1  0.414933  0.751642  0.875165  0  .  1
   O  O64  1  0.861137  0.737848  0.877330  0  .  1
   O  O65  1  0.872201  0.291407  0.875063  0  .  1
   O  O66  1  0.690457  0.659020  0.966866  0  .  1
   O  O67  1  0.360850  0.246446  0.883906  0  .  1
   O  O68  1  0.175419  0.611349  0.976379  0  .  1
   O  O69  1  0.190400  0.162369  0.972051  0  .  1
   O  O70  1  0.636439  0.151603  0.976339  0  .  1
 
