#\#CIF1.1
##########################################################################
#               Crystallographic Information Format file 
#               Produced by PyCifRW module
# 
#  This is a CIF file.  CIF has been adopted by the International
#  Union of Crystallography as the standard for data archiving and 
#  transmission.
#
#  For information on this file format, follow the CIF links at
#  http://www.iucr.org
##########################################################################

data_Li7Mn10O24
_symmetry_space_group_name_H-M          'P 1'
_cell_length_a                          5.83521775383
_cell_length_b                          17.520604159
_cell_length_c                          15.4740363336
_cell_angle_alpha                       19.1104076505
_cell_angle_beta                        55.3164509555
_cell_angle_gamma                       59.8628823929
_chemical_name_systematic               'Generated by pymatgen'
_symmetry_Int_Tables_number             1
_chemical_formula_structural            Li7Mn10O24
_chemical_formula_sum                   'Li7 Mn10 O24'
_cell_volume                            422.158408522
_cell_formula_units_Z                   1
loop_
  _symmetry_equiv_pos_site_id
  _symmetry_equiv_pos_as_xyz
   1  'x, y, z'
 
loop_
  _atom_site_type_symbol
  _atom_site_label
  _atom_site_symmetry_multiplicity
  _atom_site_fract_x
  _atom_site_fract_y
  _atom_site_fract_z
  _atom_site_attached_hydrogens
  _atom_site_B_iso_or_equiv
  _atom_site_occupancy
   Li  Li1  1  0.124873  0.293279  0.119123  0  .  1
   Li  Li2  1  0.120654  0.617489  0.134834  0  .  1
   Li  Li3  1  0.500730  0.836400  0.997429  0  .  1
   Li  Li4  1  0.876854  0.050130  0.865566  0  .  1
   Li  Li5  1  0.500215  0.835610  0.497069  0  .  1
   Li  Li6  1  0.879030  0.378348  0.871358  0  .  1
   Li  Li7  1  0.879485  0.713529  0.869804  0  .  1
   Mn  Mn8  1  0.500292  0.164986  0.001711  0  .  1
   Mn  Mn9  1  0.503375  0.503343  0.993467  0  .  1
   Mn  Mn10  1  0.503103  0.997942  0.498992  0  .  1
   Mn  Mn11  1  0.499470  0.164422  0.504052  0  .  1
   Mn  Mn12  1  0.008452  0.505061  0.492463  0  .  1
   Mn  Mn13  1  0.498939  0.334667  0.499271  0  .  1
   Mn  Mn14  1  0.993894  0.164083  0.504541  0  .  1
   Mn  Mn15  1  0.498546  0.503626  0.494640  0  .  1
   Mn  Mn16  1  0.003034  0.835380  0.495642  0  .  1
   Mn  Mn17  1  0.500260  0.673420  0.493667  0  .  1
   O  O18  1  0.253463  0.071735  0.247531  0  .  1
   O  O19  1  0.268861  0.245899  0.260513  0  .  1
   O  O20  1  0.266703  0.393754  0.262061  0  .  1
   O  O21  1  0.745533  0.059585  0.287446  0  .  1
   O  O22  1  0.708115  0.245204  0.264086  0  .  1
   O  O23  1  0.289630  0.108354  0.710666  0  .  1
   O  O24  1  0.251086  0.561794  0.283884  0  .  1
   O  O25  1  0.264719  0.283801  0.705498  0  .  1
   O  O26  1  0.249298  0.709635  0.290788  0  .  1
   O  O27  1  0.739876  0.387901  0.285906  0  .  1
   O  O28  1  0.754289  0.108368  0.710129  0  .  1
   O  O29  1  0.712176  0.560869  0.284895  0  .  1
   O  O30  1  0.293057  0.423585  0.732227  0  .  1
   O  O31  1  0.262440  0.913436  0.262191  0  .  1
   O  O32  1  0.253255  0.610617  0.708294  0  .  1
   O  O33  1  0.735526  0.275126  0.734119  0  .  1
   O  O34  1  0.739555  0.720500  0.286191  0  .  1
   O  O35  1  0.734096  0.423282  0.734694  0  .  1
   O  O36  1  0.710354  0.919583  0.245041  0  .  1
   O  O37  1  0.286506  0.748843  0.752578  0  .  1
   O  O38  1  0.745696  0.596728  0.749519  0  .  1
   O  O39  1  0.261232  0.948820  0.710264  0  .  1
   O  O40  1  0.738045  0.754407  0.736815  0  .  1
   O  O41  1  0.752722  0.956391  0.708410  0  .  1
 
