#\#CIF1.1
##########################################################################
#               Crystallographic Information Format file 
#               Produced by PyCifRW module
# 
#  This is a CIF file.  CIF has been adopted by the International
#  Union of Crystallography as the standard for data archiving and 
#  transmission.
#
#  For information on this file format, follow the CIF links at
#  http://www.iucr.org
##########################################################################

data_Li7Mn16O32
_symmetry_space_group_name_H-M          'P 1'
_cell_length_a                          23.517081217
_cell_length_b                          8.38996269269
_cell_length_c                          10.2184434283
_cell_angle_alpha                       65.910582995
_cell_angle_beta                        30.5933438572
_cell_angle_gamma                       44.6765436891
_chemical_name_systematic               'Generated by pymatgen'
_symmetry_Int_Tables_number             1
_chemical_formula_structural            Li7Mn16O32
_chemical_formula_sum                   'Li7 Mn16 O32'
_cell_volume                            592.822943364
_cell_formula_units_Z                   1
loop_
  _symmetry_equiv_pos_site_id
  _symmetry_equiv_pos_as_xyz
   1  'x, y, z'
 
loop_
  _atom_site_type_symbol
  _atom_site_label
  _atom_site_symmetry_multiplicity
  _atom_site_fract_x
  _atom_site_fract_y
  _atom_site_fract_z
  _atom_site_attached_hydrogens
  _atom_site_B_iso_or_equiv
  _atom_site_occupancy
   Li  Li1  1  0.054295  0.128564  0.762342  0  .  1
   Li  Li2  1  0.194207  0.875535  0.235524  0  .  1
   Li  Li3  1  0.311987  0.119446  0.752116  0  .  1
   Li  Li4  1  0.440990  0.871885  0.245324  0  .  1
   Li  Li5  1  0.555297  0.130399  0.760476  0  .  1
   Li  Li6  1  0.808370  0.127311  0.760956  0  .  1
   Li  Li7  1  0.943267  0.873205  0.239669  0  .  1
   Mn  Mn8  1  0.125637  0.006035  0.993784  0  .  1
   Mn  Mn9  1  0.250948  0.497974  0.997997  0  .  1
   Mn  Mn10  1  0.372727  0.995578  0.002471  0  .  1
   Mn  Mn11  1  0.127173  0.499104  0.494987  0  .  1
   Mn  Mn12  1  0.251445  0.499674  0.501012  0  .  1
   Mn  Mn13  1  0.503326  0.493870  0.999068  0  .  1
   Mn  Mn14  1  0.625644  0.996022  0.005824  0  .  1
   Mn  Mn15  1  0.378031  0.495436  0.500242  0  .  1
   Mn  Mn16  1  0.494037  0.509385  0.512917  0  .  1
   Mn  Mn17  1  0.876612  0.000542  0.996727  0  .  1
   Mn  Mn18  1  0.744700  0.507891  0.009501  0  .  1
   Mn  Mn19  1  0.620719  0.503180  0.508350  0  .  1
   Mn  Mn20  1  0.748429  0.506374  0.497257  0  .  1
   Mn  Mn21  1  0.003445  0.499613  0.989673  0  .  1
   Mn  Mn22  1  0.871634  0.506411  0.500650  0  .  1
   Mn  Mn23  1  0.004967  0.485633  0.489142  0  .  1
   O  O24  1  0.115429  0.258036  0.994601  0  .  1
   O  O25  1  0.239994  0.243655  0.036004  0  .  1
   O  O26  1  0.023398  0.698834  0.461662  0  .  1
   O  O27  1  0.138386  0.233103  0.455731  0  .  1
   O  O28  1  0.354776  0.247502  0.032193  0  .  1
   O  O29  1  0.230618  0.290593  0.530096  0  .  1
   O  O30  1  0.142183  0.725285  0.493959  0  .  1
   O  O31  1  0.017423  0.719805  0.959644  0  .  1
   O  O32  1  0.488605  0.261906  0.043043  0  .  1
   O  O33  1  0.389084  0.253844  0.468227  0  .  1
   O  O34  1  0.259433  0.710804  0.504291  0  .  1
   O  O35  1  0.602611  0.261647  0.036481  0  .  1
   O  O36  1  0.151951  0.733836  0.955727  0  .  1
   O  O37  1  0.474577  0.302459  0.540160  0  .  1
   O  O38  1  0.389383  0.707084  0.487193  0  .  1
   O  O39  1  0.258906  0.756039  0.961353  0  .  1
   O  O40  1  0.730838  0.277029  0.050485  0  .  1
   O  O41  1  0.610812  0.290942  0.514224  0  .  1
   O  O42  1  0.503840  0.719959  0.511066  0  .  1
   O  O43  1  0.842625  0.275443  0.052124  0  .  1
   O  O44  1  0.402457  0.723502  0.965331  0  .  1
   O  O45  1  0.608157  0.743585  0.543671  0  .  1
   O  O46  1  0.745428  0.283965  0.493853  0  .  1
   O  O47  1  0.513068  0.734486  0.959136  0  .  1
   O  O48  1  0.984078  0.281739  0.035182  0  .  1
   O  O49  1  0.861626  0.290666  0.502326  0  .  1
   O  O50  1  0.773667  0.712145  0.456947  0  .  1
   O  O51  1  0.627007  0.765298  0.009717  0  .  1
   O  O52  1  0.988331  0.285338  0.501275  0  .  1
   O  O53  1  0.858749  0.751446  0.542263  0  .  1
   O  O54  1  0.770710  0.721974  0.946152  0  .  1
   O  O55  1  0.906462  0.733982  0.949876  0  .  1
 
