#\#CIF1.1
##########################################################################
#               Crystallographic Information Format file 
#               Produced by PyCifRW module
# 
#  This is a CIF file.  CIF has been adopted by the International
#  Union of Crystallography as the standard for data archiving and 
#  transmission.
#
#  For information on this file format, follow the CIF links at
#  http://www.iucr.org
##########################################################################

data_Li7Ni5O12
_symmetry_space_group_name_H-M          'P 1'
_cell_length_a                          6.47165147841
_cell_length_b                          6.36874597002
_cell_length_c                          5.7709707947
_cell_angle_alpha                       76.942474857
_cell_angle_beta                        116.538636136
_cell_angle_gamma                       108.419739428
_chemical_name_systematic               'Generated by pymatgen'
_symmetry_Int_Tables_number             1
_chemical_formula_structural            Li7Ni5O12
_chemical_formula_sum                   'Li7 Ni5 O12'
_cell_volume                            200.884718312
_cell_formula_units_Z                   1
loop_
  _symmetry_equiv_pos_site_id
  _symmetry_equiv_pos_as_xyz
   1  'x, y, z'
 
loop_
  _atom_site_type_symbol
  _atom_site_label
  _atom_site_symmetry_multiplicity
  _atom_site_fract_x
  _atom_site_fract_y
  _atom_site_fract_z
  _atom_site_attached_hydrogens
  _atom_site_B_iso_or_equiv
  _atom_site_occupancy
   Li  Li1  1  0.497993  0.002893  0.249707  0  .  1
   Li  Li2  1  0.333333  0.333333  0.333333  0  .  1
   Li  Li3  1  0.830086  0.331280  0.083306  0  .  1
   Li  Li4  1  0.497670  0.006156  0.745102  0  .  1
   Li  Li5  1  0.168675  0.663774  0.416960  0  .  1
   Li  Li6  1  0.836581  0.335387  0.583361  0  .  1
   Li  Li7  1  0.168997  0.660511  0.921565  0  .  1
   Ni  Ni8  1  0.002714  0.001240  0.002259  0  .  1
   Ni  Ni9  1  0.004086  0.999875  0.500491  0  .  1
   Ni  Ni10  1  0.333333  0.333333  0.833333  0  .  1
   Ni  Ni11  1  0.662581  0.666792  0.166176  0  .  1
   Ni  Ni12  1  0.663953  0.665427  0.664408  0  .  1
   O  O13  1  0.220529  0.996227  0.358971  0  .  1
   O  O14  1  0.572758  0.352681  0.180951  0  .  1
   O  O15  1  0.093909  0.313986  0.485716  0  .  1
   O  O16  1  0.252148  0.020668  0.872626  0  .  1
   O  O17  1  0.571933  0.351282  0.715808  0  .  1
   O  O18  1  0.895119  0.681295  0.025915  0  .  1
   O  O19  1  0.094734  0.315384  0.950859  0  .  1
   O  O20  1  0.446138  0.670440  0.307696  0  .  1
   O  O21  1  0.912860  0.683049  0.538216  0  .  1
   O  O22  1  0.753806  0.983618  0.128451  0  .  1
   O  O23  1  0.414518  0.645999  0.794040  0  .  1
   O  O24  1  0.771547  0.985372  0.640752  0  .  1
 
