#\#CIF1.1
##########################################################################
#               Crystallographic Information Format file 
#               Produced by PyCifRW module
# 
#  This is a CIF file.  CIF has been adopted by the International
#  Union of Crystallography as the standard for data archiving and 
#  transmission.
#
#  For information on this file format, follow the CIF links at
#  http://www.iucr.org
##########################################################################

data_Li7Ti16O32
_symmetry_space_group_name_H-M          'P 1'
_cell_length_a                          11.9699036843
_cell_length_b                          15.8348081391
_cell_length_c                          10.3662383042
_cell_angle_alpha                       29.2036693877
_cell_angle_beta                        54.7346276876
_cell_angle_gamma                       40.8925129254
_chemical_name_systematic               'Generated by pymatgen'
_symmetry_Int_Tables_number             1
_chemical_formula_structural            Li7Ti16O32
_chemical_formula_sum                   'Li7 Ti16 O32'
_cell_volume                            606.296882322
_cell_formula_units_Z                   1
loop_
  _symmetry_equiv_pos_site_id
  _symmetry_equiv_pos_as_xyz
   1  'x, y, z'
 
loop_
  _atom_site_type_symbol
  _atom_site_label
  _atom_site_symmetry_multiplicity
  _atom_site_fract_x
  _atom_site_fract_y
  _atom_site_fract_z
  _atom_site_attached_hydrogens
  _atom_site_B_iso_or_equiv
  _atom_site_occupancy
   Li  Li1  1  0.312521  0.499982  0.125026  0  .  1
   Li  Li2  1  0.436257  -0.000001  0.875959  0  .  1
   Li  Li3  1  0.187229  0.501505  0.872522  0  .  1
   Li  Li4  1  0.812509  0.499989  0.125029  0  .  1
   Li  Li5  1  0.937744  0.000020  0.875939  0  .  1
   Li  Li6  1  0.562520  0.999994  0.125008  0  .  1
   Li  Li7  1  0.688720  0.498502  0.875521  0  .  1
   O  O8  1  0.019006  0.225065  0.262678  0  .  1
   O  O9  1  0.144383  0.999946  0.736722  0  .  1
   O  O10  1  0.256447  0.224519  0.288135  0  .  1
   O  O11  1  0.106004  0.500820  0.261422  0  .  1
   O  O12  1  0.368936  0.000054  0.736620  0  .  1
   O  O13  1  0.518277  0.225007  0.262734  0  .  1
   O  O14  1  0.230896  0.275886  0.736799  0  .  1
   O  O15  1  0.006411  0.724120  0.288566  0  .  1
   O  O16  1  0.118585  0.499631  0.737681  0  .  1
   O  O17  1  0.381753  0.499178  0.263081  0  .  1
   O  O18  1  0.644107  0.999930  0.737403  0  .  1
   O  O19  1  0.274443  0.717491  0.266208  0  .  1
   O  O20  1  0.756064  0.224605  0.288721  0  .  1
   O  O21  1  0.494085  0.274391  0.712977  0  .  1
   O  O22  1  0.606724  0.499315  0.262929  0  .  1
   O  O23  1  0.868560  0.000068  0.737276  0  .  1
   O  O24  1  0.133149  0.999927  0.266391  0  .  1
   O  O25  1  0.394548  0.499494  0.737829  0  .  1
   O  O26  1  0.730439  0.275920  0.736759  0  .  1
   O  O27  1  0.506860  0.724102  0.288581  0  .  1
   O  O28  1  0.243981  0.774981  0.712772  0  .  1
   O  O29  1  0.356449  0.000073  0.262572  0  .  1
   O  O30  1  0.618129  0.500511  0.736804  0  .  1
   O  O31  1  0.881023  0.500692  0.261560  0  .  1
   O  O32  1  0.768553  0.725612  0.261759  0  .  1
   O  O33  1  0.991860  0.282514  0.701184  0  .  1
   O  O34  1  0.480898  0.775475  0.737189  0  .  1
   O  O35  1  0.894103  0.500364  0.736955  0  .  1
   O  O36  1  0.630911  0.999926  0.262711  0  .  1
   O  O37  1  0.743246  0.774932  0.712812  0  .  1
   O  O38  1  0.850547  0.000071  0.266233  0  .  1
   O  O39  1  0.980620  0.775388  0.737940  0  .  1
   Ti  Ti40  1  0.124056  0.249630  0.502663  0  .  1
   Ti  Ti41  1  0.000576  0.496187  0.504604  0  .  1
   Ti  Ti42  1  0.124431  0.248137  0.001048  0  .  1
   Ti  Ti43  1  0.248631  0.503816  0.496979  0  .  1
   Ti  Ti44  1  0.624904  0.249358  0.501464  0  .  1
   Ti  Ti45  1  0.496695  0.503854  0.496960  0  .  1
   Ti  Ti46  1  0.628316  0.248063  0.001094  0  .  1
   Ti  Ti47  1  0.372527  0.751937  0.497225  0  .  1
   Ti  Ti48  1  0.752485  0.496163  0.504653  0  .  1
   Ti  Ti49  1  0.250707  0.000013  0.499192  0  .  1
   Ti  Ti50  1  0.373634  0.750381  0.001923  0  .  1
   Ti  Ti51  1  0.500087  0.999985  0.499215  0  .  1
   Ti  Ti52  1  0.876381  0.751863  0.497319  0  .  1
   Ti  Ti53  1  0.751366  0.999949  0.497769  0  .  1
   Ti  Ti54  1  0.874286  0.750631  1.000188  0  .  1
   Ti  Ti55  1  0.000925  0.000032  0.497694  0  .  1
 
