#\#CIF1.1
##########################################################################
#               Crystallographic Information Format file 
#               Produced by PyCifRW module
# 
#  This is a CIF file.  CIF has been adopted by the International
#  Union of Crystallography as the standard for data archiving and 
#  transmission.
#
#  For information on this file format, follow the CIF links at
#  http://www.iucr.org
##########################################################################

data_Li7V5O12
_symmetry_space_group_name_H-M          'P 1'
_cell_length_a                          5.08510096024
_cell_length_b                          5.08510130875
_cell_length_c                          9.65559829854
_cell_angle_alpha                       85.813339551
_cell_angle_beta                        94.18666295
_cell_angle_gamma                       61.9723416964
_chemical_name_systematic               'Generated by pymatgen'
_symmetry_Int_Tables_number             1
_chemical_formula_structural            Li7V5O12
_chemical_formula_sum                   'Li7 V5 O12'
_cell_volume                            218.16781537
_cell_formula_units_Z                   1
loop_
  _symmetry_equiv_pos_site_id
  _symmetry_equiv_pos_as_xyz
   1  'x, y, z'
 
loop_
  _atom_site_type_symbol
  _atom_site_label
  _atom_site_symmetry_multiplicity
  _atom_site_fract_x
  _atom_site_fract_y
  _atom_site_fract_z
  _atom_site_attached_hydrogens
  _atom_site_B_iso_or_equiv
  _atom_site_occupancy
   Li  Li1  1  0.242739  0.242739  0.750000  0  .  1
   Li  Li2  1  0.153460  0.666588  0.505080  0  .  1
   Li  Li3  1  0.323125  0.854273  0.994246  0  .  1
   Li  Li4  1  0.666588  0.153460  0.994920  0  .  1
   Li  Li5  1  0.854273  0.323125  0.505754  0  .  1
   Li  Li6  1  0.752752  0.752752  0.250000  0  .  1
   Li  Li7  1  0.919396  0.919396  0.750000  0  .  1
   V  V8  1  0.082516  0.082516  0.250000  0  .  1
   V  V9  1  0.002635  0.510826  0.988616  0  .  1
   V  V10  1  0.510826  0.002635  0.511384  0  .  1
   V  V11  1  0.424262  0.424262  0.250000  0  .  1
   V  V12  1  0.575381  0.575381  0.750000  0  .  1
   O  O13  1  0.934166  0.242993  0.871481  0  .  1
   O  O14  1  0.242993  0.934166  0.628519  0  .  1
   O  O15  1  0.159315  0.347448  0.378395  0  .  1
   O  O16  1  0.347448  0.159315  0.121605  0  .  1
   O  O17  1  0.276055  0.536901  0.879480  0  .  1
   O  O18  1  0.536901  0.276055  0.620520  0  .  1
   O  O19  1  0.440425  0.740044  0.370798  0  .  1
   O  O20  1  0.740044  0.440425  0.129202  0  .  1
   O  O21  1  0.647198  0.833289  0.883277  0  .  1
   O  O22  1  0.833289  0.647198  0.616723  0  .  1
   O  O23  1  0.773062  0.061152  0.372167  0  .  1
   O  O24  1  0.061152  0.773062  0.127833  0  .  1
 
