#\#CIF1.1
##########################################################################
#               Crystallographic Information Format file 
#               Produced by PyCifRW module
# 
#  This is a CIF file.  CIF has been adopted by the International
#  Union of Crystallography as the standard for data archiving and 
#  transmission.
#
#  For information on this file format, follow the CIF links at
#  http://www.iucr.org
##########################################################################

data_Li8(NiO2)5
_symmetry_space_group_name_H-M          'P 1'
_cell_length_a                          7.95598684877
_cell_length_b                          5.31599492123
_cell_length_c                          5.91238686199
_cell_angle_alpha                       63.5117349319
_cell_angle_beta                        110.643727471
_cell_angle_gamma                       90.2898306358
_chemical_name_systematic               'Generated by pymatgen'
_symmetry_Int_Tables_number             1
_chemical_formula_structural            Li8(NiO2)5
_chemical_formula_sum                   'Li8 Ni5 O10'
_cell_volume                            205.951694746
_cell_formula_units_Z                   1
loop_
  _symmetry_equiv_pos_site_id
  _symmetry_equiv_pos_as_xyz
   1  'x, y, z'
 
loop_
  _atom_site_type_symbol
  _atom_site_label
  _atom_site_symmetry_multiplicity
  _atom_site_fract_x
  _atom_site_fract_y
  _atom_site_fract_z
  _atom_site_attached_hydrogens
  _atom_site_B_iso_or_equiv
  _atom_site_occupancy
   Li  Li1  1  0.699600  0.024450  0.312799  0  .  1
   Li  Li2  1  0.130212  0.587667  0.486623  0  .  1
   Li  Li3  1  0.269599  0.212546  0.913185  0  .  1
   Li  Li4  1  0.059902  0.845061  0.672532  0  .  1
   Li  Li5  1  0.700636  0.775497  0.087131  0  .  1
   Li  Li6  1  0.522521  0.406902  0.906891  0  .  1
   Li  Li7  1  0.877599  0.392904  0.493233  0  .  1
   Li  Li8  1  0.340110  0.954927  0.727631  0  .  1
   Ni  Ni9  1  0.992895  0.004342  0.008683  0  .  1
   Ni  Ni10  1  0.199968  0.399977  0.200018  0  .  1
   Ni  Ni11  1  0.595446  0.207820  0.588844  0  .  1
   Ni  Ni12  1  0.407053  0.795596  0.391292  0  .  1
   Ni  Ni13  1  0.804473  0.592146  0.811152  0  .  1
   O  O14  1  0.453310  0.215574  0.220716  0  .  1
   O  O15  1  0.232710  0.831500  0.015732  0  .  1
   O  O16  1  0.044952  0.433142  0.806097  0  .  1
   O  O17  1  0.354959  0.367069  0.593778  0  .  1
   O  O18  1  0.844827  0.015373  0.641721  0  .  1
   O  O19  1  0.167473  0.968474  0.384424  0  .  1
   O  O20  1  0.651981  0.625307  0.426229  0  .  1
   O  O21  1  0.946723  0.584103  0.179464  0  .  1
   O  O22  1  0.747750  0.174621  0.973547  0  .  1
   O  O23  1  0.555136  0.784665  0.758112  0  .  1
 
