#\#CIF1.1
##########################################################################
#               Crystallographic Information Format file 
#               Produced by PyCifRW module
# 
#  This is a CIF file.  CIF has been adopted by the International
#  Union of Crystallography as the standard for data archiving and 
#  transmission.
#
#  For information on this file format, follow the CIF links at
#  http://www.iucr.org
##########################################################################

data_Li8(FeO2)5
_symmetry_space_group_name_H-M          'P 1'
_cell_length_a                          5.43978890703
_cell_length_b                          6.77223568181
_cell_length_c                          8.02902212959
_cell_angle_alpha                       90.4374994217
_cell_angle_beta                        102.804158049
_cell_angle_gamma                       113.384186603
_chemical_name_systematic               'Generated by pymatgen'
_symmetry_Int_Tables_number             1
_chemical_formula_structural            Li8(FeO2)5
_chemical_formula_sum                   'Li8 Fe5 O10'
_cell_volume                            263.22543148
_cell_formula_units_Z                   1
loop_
  _symmetry_equiv_pos_site_id
  _symmetry_equiv_pos_as_xyz
   1  'x, y, z'
 
loop_
  _atom_site_type_symbol
  _atom_site_label
  _atom_site_symmetry_multiplicity
  _atom_site_fract_x
  _atom_site_fract_y
  _atom_site_fract_z
  _atom_site_attached_hydrogens
  _atom_site_B_iso_or_equiv
  _atom_site_occupancy
   Li  Li1  1  0.902178  0.341833  0.068822  0  .  1
   Li  Li2  1  0.706808  0.152827  0.443059  0  .  1
   Li  Li3  1  0.497822  0.058167  0.131178  0  .  1
   Li  Li4  1  0.693192  0.247173  0.756941  0  .  1
   Li  Li5  1  0.274152  0.713174  0.265582  0  .  1
   Li  Li6  1  0.313921  0.875679  0.551078  0  .  1
   Li  Li7  1  0.086079  0.524321  0.648922  0  .  1
   Li  Li8  1  0.125848  0.686826  0.934418  0  .  1
   Fe  Fe9  1  0.903365  0.900018  0.198149  0  .  1
   Fe  Fe10  1  0.496635  0.499982  0.001851  0  .  1
   Fe  Fe11  1  0.700000  0.700000  0.600000  0  .  1
   Fe  Fe12  1  0.291112  0.298876  0.403824  0  .  1
   Fe  Fe13  1  0.108888  0.101124  0.796176  0  .  1
   O  O14  1  0.898832  0.173438  0.263698  0  .  1
   O  O15  1  0.899785  0.632754  0.104003  0  .  1
   O  O16  1  0.680714  0.415832  0.556992  0  .  1
   O  O17  1  0.296307  0.011875  0.324923  0  .  1
   O  O18  1  0.500215  0.767246  0.095997  0  .  1
   O  O19  1  0.501168  0.226562  0.936302  0  .  1
   O  O20  1  0.719286  0.984168  0.643008  0  .  1
   O  O21  1  0.323808  0.593372  0.486289  0  .  1
   O  O22  1  0.103693  0.388125  0.875077  0  .  1
   O  O23  1  0.076192  0.806628  0.713711  0  .  1
 
