#\#CIF1.1
##########################################################################
#               Crystallographic Information Format file 
#               Produced by PyCifRW module
# 
#  This is a CIF file.  CIF has been adopted by the International
#  Union of Crystallography as the standard for data archiving and 
#  transmission.
#
#  For information on this file format, follow the CIF links at
#  http://www.iucr.org
##########################################################################

data_Li8(NiO2)11
_symmetry_space_group_name_H-M          'P 1'
_cell_length_a                          7.47880062633
_cell_length_b                          7.66748485595
_cell_length_c                          14.0123844847
_cell_angle_alpha                       84.0403932715
_cell_angle_beta                        84.38809558
_cell_angle_gamma                       68.8066424091
_chemical_name_systematic               'Generated by pymatgen'
_symmetry_Int_Tables_number             1
_chemical_formula_structural            Li8(NiO2)11
_chemical_formula_sum                   'Li16 Ni22 O44'
_cell_volume                            743.55127366
_cell_formula_units_Z                   2
loop_
  _symmetry_equiv_pos_site_id
  _symmetry_equiv_pos_as_xyz
   1  'x, y, z'
 
loop_
  _atom_site_type_symbol
  _atom_site_label
  _atom_site_symmetry_multiplicity
  _atom_site_fract_x
  _atom_site_fract_y
  _atom_site_fract_z
  _atom_site_attached_hydrogens
  _atom_site_B_iso_or_equiv
  _atom_site_occupancy
   Li  Li1  1  0.868785  0.806540  0.407187  0  .  1
   Li  Li2  1  0.686839  0.900045  0.947923  0  .  1
   Li  Li3  1  0.902125  0.553552  0.277374  0  .  1
   Li  Li4  1  0.963919  0.271465  0.130521  0  .  1
   Li  Li5  1  0.782618  0.366805  0.682784  0  .  1
   Li  Li6  1  0.490772  0.995968  0.501959  0  .  1
   Li  Li7  1  0.828049  0.090003  0.547106  0  .  1
   Li  Li8  1  0.371367  0.814055  0.906275  0  .  1
   Li  Li9  1  0.573670  0.470512  0.235617  0  .  1
   Li  Li10  1  0.401051  0.551593  0.776872  0  .  1
   Li  Li11  1  0.630101  0.181444  0.085886  0  .  1
   Li  Li12  1  0.442426  0.277406  0.635979  0  .  1
   Li  Li13  1  0.195753  0.898114  0.449206  0  .  1
   Li  Li14  1  0.007736  0.000833  0.997017  0  .  1
   Li  Li15  1  0.272653  0.367858  0.182200  0  .  1
   Li  Li16  1  0.078862  0.466664  0.734431  0  .  1
   Ni  Ni17  1  0.933993  0.908421  0.205007  0  .  1
   Ni  Ni18  1  0.751925  0.995753  0.750882  0  .  1
   Ni  Ni19  1  0.975725  0.640433  0.070103  0  .  1
   Ni  Ni20  1  0.795897  0.728071  0.610186  0  .  1
   Ni  Ni21  1  0.841568  0.450768  0.477699  0  .  1
   Ni  Ni22  1  0.885291  0.181361  0.338255  0  .  1
   Ni  Ni23  1  0.705316  0.272505  0.884667  0  .  1
   Ni  Ni24  1  0.611429  0.820994  0.157641  0  .  1
   Ni  Ni25  1  0.433191  0.911389  0.702753  0  .  1
   Ni  Ni26  1  0.658561  0.542988  0.024890  0  .  1
   Ni  Ni27  1  0.480639  0.633305  0.569999  0  .  1
   Ni  Ni28  1  0.521383  0.369706  0.430733  0  .  1
   Ni  Ni29  1  0.337818  0.451639  0.976239  0  .  1
   Ni  Ni30  1  0.251428  0.999181  0.249135  0  .  1
   Ni  Ni31  1  0.571360  0.089597  0.298516  0  .  1
   Ni  Ni32  1  0.387861  0.178955  0.840443  0  .  1
   Ni  Ni33  1  0.292389  0.727716  0.111661  0  .  1
   Ni  Ni34  1  0.113822  0.818541  0.660300  0  .  1
   Ni  Ni35  1  0.159126  0.548034  0.526456  0  .  1
   Ni  Ni36  1  0.202668  0.272639  0.387978  0  .  1
   Ni  Ni37  1  0.019387  0.368422  0.931204  0  .  1
   Ni  Ni38  1  0.072158  0.090706  0.795607  0  .  1
   O  O39  1  0.983914  0.803674  0.536986  0  .  1
   O  O40  1  0.911619  0.746443  0.721245  0  .  1
   O  O41  1  0.850593  0.631966  0.964264  0  .  1
   O  O42  1  0.961520  0.481563  0.596661  0  .  1
   O  O43  1  0.902389  0.336413  0.809868  0  .  1
   O  O44  1  0.806313  0.891917  0.088233  0  .  1
   O  O45  1  0.625890  0.977439  0.625180  0  .  1
   O  O46  1  0.950091  0.071576  0.684735  0  .  1
   O  O47  1  0.743998  0.844182  0.279656  0  .  1
   O  O48  1  0.549562  0.931313  0.819445  0  .  1
   O  O49  1  0.879877  0.026027  0.870885  0  .  1
   O  O50  1  0.789637  0.567780  0.146738  0  .  1
   O  O51  1  0.690041  0.714920  0.498274  0  .  1
   O  O52  1  0.607821  0.642186  0.676132  0  .  1
   O  O53  1  0.720436  0.426937  0.355758  0  .  1
   O  O54  1  0.816001  0.288572  0.014960  0  .  1
   O  O55  1  0.527325  0.519718  0.903756  0  .  1
   O  O56  1  0.654694  0.372787  0.549479  0  .  1
   O  O57  1  0.761314  0.173701  0.228581  0  .  1
   O  O58  1  0.575593  0.248308  0.763697  0  .  1
   O  O59  1  0.697122  0.101876  0.406887  0  .  1
   O  O60  1  0.486621  0.790666  0.038079  0  .  1
   O  O61  1  0.516193  0.182321  0.949800  0  .  1
   O  O62  1  0.311146  0.889051  0.590187  0  .  1
   O  O63  1  0.412680  0.748943  0.220305  0  .  1
   O  O64  1  0.246249  0.844979  0.778609  0  .  1
   O  O65  1  0.353045  0.625566  0.463271  0  .  1
   O  O66  1  0.456175  0.476624  0.096550  0  .  1
   O  O67  1  0.272569  0.564475  0.651157  0  .  1
   O  O68  1  0.168566  0.720052  0.004466  0  .  1
   O  O69  1  0.406325  0.336078  0.312158  0  .  1
   O  O70  1  0.237045  0.427279  0.857943  0  .  1
   O  O71  1  0.336107  0.298336  0.504670  0  .  1
   O  O72  1  0.122377  0.973190  0.128703  0  .  1
   O  O73  1  0.453483  0.077629  0.186749  0  .  1
   O  O74  1  0.260478  0.179650  0.732090  0  .  1
   O  O75  1  0.053794  0.934945  0.320799  0  .  1
   O  O76  1  0.375655  0.026804  0.372736  0  .  1
   O  O77  1  0.194565  0.097210  0.904170  0  .  1
   O  O78  1  0.100661  0.647731  0.179258  0  .  1
   O  O79  1  0.028097  0.518081  0.403141  0  .  1
   O  O80  1  0.140291  0.395670  0.054818  0  .  1
   O  O81  1  0.075926  0.249531  0.264554  0  .  1
   O  O82  1  0.999384  0.186432  0.448731  0  .  1
 
