#\#CIF1.1
##########################################################################
#               Crystallographic Information Format file 
#               Produced by PyCifRW module
# 
#  This is a CIF file.  CIF has been adopted by the International
#  Union of Crystallography as the standard for data archiving and 
#  transmission.
#
#  For information on this file format, follow the CIF links at
#  http://www.iucr.org
##########################################################################

data_Li8CoO6
_symmetry_space_group_name_H-M          'P 1'
_cell_length_a                          5.55607009
_cell_length_b                          5.55607008977
_cell_length_c                          10.89773252
_cell_angle_alpha                       90.0
_cell_angle_beta                        90.0
_cell_angle_gamma                       120.000000061
_chemical_name_systematic               'Generated by pymatgen'
_symmetry_Int_Tables_number             1
_chemical_formula_structural            Li8CoO6
_chemical_formula_sum                   'Li16 Co2 O12'
_cell_volume                            291.341402809
_cell_formula_units_Z                   2
loop_
  _symmetry_equiv_pos_site_id
  _symmetry_equiv_pos_as_xyz
   1  'x, y, z'
 
loop_
  _atom_site_type_symbol
  _atom_site_label
  _atom_site_symmetry_multiplicity
  _atom_site_fract_x
  _atom_site_fract_y
  _atom_site_fract_z
  _atom_site_attached_hydrogens
  _atom_site_B_iso_or_equiv
  _atom_site_occupancy
   Li  Li1  1  0.687525  0.000000  0.767740  0  .  1
   Li  Li2  1  0.687523  0.687524  0.267740  0  .  1
   Li  Li3  1  1.000000  0.312477  0.267740  0  .  1
   Li  Li4  1  0.000000  0.687524  0.767740  0  .  1
   Li  Li5  1  0.312477  0.312477  0.767740  0  .  1
   Li  Li6  1  0.312475  0.000000  0.267740  0  .  1
   Li  Li7  1  0.611434  0.000000  0.127416  0  .  1
   Li  Li8  1  0.611435  0.611435  0.627415  0  .  1
   Li  Li9  1  0.000000  0.388566  0.627415  0  .  1
   Li  Li10  1  0.000000  0.611435  0.127416  0  .  1
   Li  Li11  1  0.388566  0.388566  0.127416  0  .  1
   Li  Li12  1  0.388566  0.000000  0.627415  0  .  1
   Li  Li13  1  0.666666  0.333333  0.406993  0  .  1
   Li  Li14  1  0.333334  0.666668  0.906992  0  .  1
   Li  Li15  1  0.333334  0.666668  0.406993  0  .  1
   Li  Li16  1  0.666666  0.333333  0.906992  0  .  1
   O  O17  1  0.690477  0.000000  0.949153  0  .  1
   O  O18  1  0.690477  0.690477  0.449152  0  .  1
   O  O19  1  0.000000  0.309524  0.449152  0  .  1
   O  O20  1  1.000000  0.690477  0.949153  0  .  1
   O  O21  1  0.309523  0.309524  0.949153  0  .  1
   O  O22  1  0.309523  0.000000  0.449152  0  .  1
   O  O23  1  0.666666  0.333333  0.216790  0  .  1
   O  O24  1  0.000000  0.000000  0.165520  0  .  1
   O  O25  1  0.666666  0.333333  0.716789  0  .  1
   O  O26  1  0.333334  0.666668  0.216790  0  .  1
   O  O27  1  0.000000  0.000000  0.665520  0  .  1
   O  O28  1  0.333334  0.666668  0.716789  0  .  1
   Co  Co29  1  0.000000  0.000000  0.495992  0  .  1
   Co  Co30  1  0.000000  0.000000  0.995991  0  .  1
 
