#\#CIF1.1
##########################################################################
#               Crystallographic Information Format file 
#               Produced by PyCifRW module
# 
#  This is a CIF file.  CIF has been adopted by the International
#  Union of Crystallography as the standard for data archiving and 
#  transmission.
#
#  For information on this file format, follow the CIF links at
#  http://www.iucr.org
##########################################################################

data_Li8FeO6
_symmetry_space_group_name_H-M          'P 1'
_cell_length_a                          5.34692793432
_cell_length_b                          5.85519516578
_cell_length_c                          5.39490143382
_cell_angle_alpha                       117.371952451
_cell_angle_beta                        116.936763873
_cell_angle_gamma                       65.4355795356
_chemical_name_systematic               'Generated by pymatgen'
_symmetry_Int_Tables_number             1
_chemical_formula_structural            Li8FeO6
_chemical_formula_sum                   'Li8 Fe1 O6'
_cell_volume                            129.045325775
_cell_formula_units_Z                   1
loop_
  _symmetry_equiv_pos_site_id
  _symmetry_equiv_pos_as_xyz
   1  'x, y, z'
 
loop_
  _atom_site_type_symbol
  _atom_site_label
  _atom_site_symmetry_multiplicity
  _atom_site_fract_x
  _atom_site_fract_y
  _atom_site_fract_z
  _atom_site_attached_hydrogens
  _atom_site_B_iso_or_equiv
  _atom_site_occupancy
   Li  Li1  1  0.231810  0.356549  0.489993  0  .  1
   Li  Li2  1  0.099632  0.658171  0.240310  0  .  1
   Li  Li3  1  0.485719  0.643075  0.899337  0  .  1
   Li  Li4  1  0.368447  0.976102  0.664358  0  .  1
   Li  Li5  1  0.631553  0.023898  0.335642  0  .  1
   Li  Li6  1  0.514281  0.356925  0.100663  0  .  1
   Li  Li7  1  0.900368  0.341829  0.759690  0  .  1
   Li  Li8  1  0.768190  0.643451  0.510007  0  .  1
   Fe  Fe9  1  0.000000  0.000000  0.000000  0  .  1
   O  O10  1  0.102820  0.768055  0.639692  0  .  1
   O  O11  1  0.218857  0.238689  0.083589  0  .  1
   O  O12  1  0.603601  0.239237  0.754991  0  .  1
   O  O13  1  0.396399  0.760763  0.245009  0  .  1
   O  O14  1  0.781143  0.761311  0.916411  0  .  1
   O  O15  1  0.897180  0.231945  0.360308  0  .  1
 
