#\#CIF1.1
##########################################################################
#               Crystallographic Information Format file 
#               Produced by PyCifRW module
# 
#  This is a CIF file.  CIF has been adopted by the International
#  Union of Crystallography as the standard for data archiving and 
#  transmission.
#
#  For information on this file format, follow the CIF links at
#  http://www.iucr.org
##########################################################################

data_Li8FeS6
_symmetry_space_group_name_H-M          'P 1'
_cell_length_a                          6.81195163674
_cell_length_b                          6.81088819916
_cell_length_c                          13.4620020883
_cell_angle_alpha                       90.0557139817
_cell_angle_beta                        89.9586607797
_cell_angle_gamma                       120.027723143
_chemical_name_systematic               'Generated by pymatgen'
_symmetry_Int_Tables_number             1
_chemical_formula_structural            Li8FeS6
_chemical_formula_sum                   'Li16 Fe2 S12'
_cell_volume                            540.746827768
_cell_formula_units_Z                   2
loop_
  _symmetry_equiv_pos_site_id
  _symmetry_equiv_pos_as_xyz
   1  'x, y, z'
 
loop_
  _atom_site_type_symbol
  _atom_site_label
  _atom_site_symmetry_multiplicity
  _atom_site_fract_x
  _atom_site_fract_y
  _atom_site_fract_z
  _atom_site_attached_hydrogens
  _atom_site_B_iso_or_equiv
  _atom_site_occupancy
   Li  Li1  1  0.000408  0.686019  0.766714  0  .  1
   Li  Li2  1  -0.000012  0.627841  0.129992  0  .  1
   Li  Li3  1  0.000316  0.372112  0.629230  0  .  1
   Li  Li4  1  0.999564  0.312601  0.266543  0  .  1
   Li  Li5  1  0.332942  0.666578  0.400802  0  .  1
   Li  Li6  1  0.333794  0.666796  0.900022  0  .  1
   Li  Li7  1  0.314455  0.314421  0.766442  0  .  1
   Li  Li8  1  0.371733  0.371482  0.129898  0  .  1
   Li  Li9  1  0.628383  0.628030  0.629269  0  .  1
   Li  Li10  1  0.312216  0.999805  0.266802  0  .  1
   Li  Li11  1  0.686854  0.687141  0.266592  0  .  1
   Li  Li12  1  0.372368  0.999882  0.629264  0  .  1
   Li  Li13  1  0.666599  0.333491  0.900003  0  .  1
   Li  Li14  1  0.666610  0.333585  0.400873  0  .  1
   Li  Li15  1  0.627711  0.999823  0.129935  0  .  1
   Li  Li16  1  0.686065  0.000403  0.766533  0  .  1
   Fe  Fe17  1  0.000317  0.000047  0.000076  0  .  1
   Fe  Fe18  1  -0.000640  -0.000261  0.501346  0  .  1
   S  S19  1  0.000348  0.694268  0.950791  0  .  1
   S  S20  1  0.999648  0.305667  0.450417  0  .  1
   S  S21  1  0.333069  0.666517  0.217264  0  .  1
   S  S22  1  0.999745  0.999780  0.169616  0  .  1
   S  S23  1  0.000264  0.000010  0.670254  0  .  1
   S  S24  1  0.333652  0.666821  0.716558  0  .  1
   S  S25  1  0.305077  0.305272  0.950532  0  .  1
   S  S26  1  0.306466  0.000111  0.450567  0  .  1
   S  S27  1  0.693922  0.694531  0.450531  0  .  1
   S  S28  1  0.666951  0.333521  0.716528  0  .  1
   S  S29  1  0.666340  0.333168  0.217315  0  .  1
   S  S30  1  0.694635  0.000538  0.950555  0  .  1
 
