#\#CIF1.1
##########################################################################
#               Crystallographic Information Format file 
#               Produced by PyCifRW module
# 
#  This is a CIF file.  CIF has been adopted by the International
#  Union of Crystallography as the standard for data archiving and 
#  transmission.
#
#  For information on this file format, follow the CIF links at
#  http://www.iucr.org
##########################################################################

data_Li8Mn2O7
_symmetry_space_group_name_H-M          'P 1'
_cell_length_a                          7.67150123692
_cell_length_b                          10.11888256
_cell_length_c                          9.60093164521
_cell_angle_alpha                       90.0
_cell_angle_beta                        111.409581785
_cell_angle_gamma                       90.0
_chemical_name_systematic               'Generated by pymatgen'
_symmetry_Int_Tables_number             1
_chemical_formula_structural            Li8Mn2O7
_chemical_formula_sum                   'Li32 Mn8 O28'
_cell_volume                            693.862697254
_cell_formula_units_Z                   4
loop_
  _symmetry_equiv_pos_site_id
  _symmetry_equiv_pos_as_xyz
   1  'x, y, z'
 
loop_
  _atom_site_type_symbol
  _atom_site_label
  _atom_site_symmetry_multiplicity
  _atom_site_fract_x
  _atom_site_fract_y
  _atom_site_fract_z
  _atom_site_attached_hydrogens
  _atom_site_B_iso_or_equiv
  _atom_site_occupancy
   Li  Li1  1  0.097693  0.471871  0.922502  0  .  1
   Li  Li2  1  0.113615  0.481412  0.632826  0  .  1
   Li  Li3  1  0.094436  0.730775  0.546115  0  .  1
   Li  Li4  1  0.097693  0.028129  0.422502  0  .  1
   Li  Li5  1  0.271920  0.956793  0.694011  0  .  1
   Li  Li6  1  0.113615  0.018588  0.132826  0  .  1
   Li  Li7  1  0.285253  0.278916  0.587940  0  .  1
   Li  Li8  1  0.094436  0.769225  0.046115  0  .  1
   Li  Li9  1  0.420509  0.482359  0.866193  0  .  1
   Li  Li10  1  0.347904  0.508022  0.519104  0  .  1
   Li  Li11  1  0.271920  0.543207  0.194011  0  .  1
   Li  Li12  1  0.507697  0.238484  0.877085  0  .  1
   Li  Li13  1  0.285253  0.221084  0.087940  0  .  1
   Li  Li14  1  0.492303  0.738484  0.622915  0  .  1
   Li  Li15  1  0.420509  0.017641  0.366193  0  .  1
   Li  Li16  1  0.652096  0.008022  0.980896  0  .  1
   Li  Li17  1  0.347904  0.991978  0.019105  0  .  1
   Li  Li18  1  0.579491  0.982359  0.633807  0  .  1
   Li  Li19  1  0.507697  0.261516  0.377085  0  .  1
   Li  Li20  1  0.714746  0.778916  0.912060  0  .  1
   Li  Li21  1  0.492303  0.761516  0.122915  0  .  1
   Li  Li22  1  0.728080  0.456793  0.805989  0  .  1
   Li  Li23  1  0.652096  0.491978  0.480896  0  .  1
   Li  Li24  1  0.579491  0.517641  0.133807  0  .  1
   Li  Li25  1  0.905564  0.230775  0.953885  0  .  1
   Li  Li26  1  0.714746  0.721084  0.412060  0  .  1
   Li  Li27  1  0.886385  0.981412  0.867174  0  .  1
   Li  Li28  1  0.728080  0.043207  0.305989  0  .  1
   Li  Li29  1  0.902307  0.971871  0.577498  0  .  1
   Li  Li30  1  0.905564  0.269225  0.453885  0  .  1
   Li  Li31  1  0.886385  0.518588  0.367174  0  .  1
   Li  Li32  1  0.902307  0.528129  0.077498  0  .  1
   Mn  Mn33  1  0.106706  0.208093  0.777813  0  .  1
   Mn  Mn34  1  0.106706  0.291907  0.277813  0  .  1
   Mn  Mn35  1  0.306152  0.723191  0.842876  0  .  1
   Mn  Mn36  1  0.306152  0.776809  0.342876  0  .  1
   Mn  Mn37  1  0.693848  0.223191  0.657124  0  .  1
   Mn  Mn38  1  0.693848  0.276809  0.157124  0  .  1
   Mn  Mn39  1  0.893294  0.708093  0.722187  0  .  1
   Mn  Mn40  1  0.893294  0.791907  0.222187  0  .  1
   O  O41  1  0.102654  0.097664  0.939163  0  .  1
   O  O42  1  0.096078  0.829785  0.718432  0  .  1
   O  O43  1  0.125101  0.112307  0.614303  0  .  1
   O  O44  1  0.102654  0.402336  0.439163  0  .  1
   O  O45  1  0.267661  0.341973  0.773595  0  .  1
   O  O46  1  0.096078  0.670215  0.218432  0  .  1
   O  O47  1  0.125101  0.387693  0.114303  0  .  1
   O  O48  1  0.327669  0.613151  0.689622  0  .  1
   O  O49  1  0.267661  0.158027  0.273595  0  .  1
   O  O50  1  0.472223  0.860409  0.935843  0  .  1
   O  O51  1  0.340286  0.899082  0.505243  0  .  1
   O  O52  1  0.327669  0.886849  0.189622  0  .  1
   O  O53  1  0.472223  0.639591  0.435843  0  .  1
   O  O54  1  0.659714  0.399082  0.994757  0  .  1
   O  O55  1  0.340286  0.600918  0.005243  0  .  1
   O  O56  1  0.527777  0.360409  0.564157  0  .  1
   O  O57  1  0.672331  0.113151  0.810378  0  .  1
   O  O58  1  0.659714  0.100918  0.494757  0  .  1
   O  O59  1  0.527777  0.139591  0.064157  0  .  1
   O  O60  1  0.732339  0.841973  0.726405  0  .  1
   O  O61  1  0.672331  0.386849  0.310378  0  .  1
   O  O62  1  0.874899  0.612307  0.885697  0  .  1
   O  O63  1  0.903922  0.329785  0.781568  0  .  1
   O  O64  1  0.732339  0.658027  0.226405  0  .  1
   O  O65  1  0.897346  0.597664  0.560837  0  .  1
   O  O66  1  0.874899  0.887693  0.385697  0  .  1
   O  O67  1  0.903922  0.170215  0.281568  0  .  1
   O  O68  1  0.897346  0.902336  0.060837  0  .  1
 
