#\#CIF1.1
##########################################################################
#               Crystallographic Information Format file 
#               Produced by PyCifRW module
# 
#  This is a CIF file.  CIF has been adopted by the International
#  Union of Crystallography as the standard for data archiving and 
#  transmission.
#
#  For information on this file format, follow the CIF links at
#  http://www.iucr.org
##########################################################################

data_Li8MnO6
_symmetry_space_group_name_H-M          'P 1'
_cell_length_a                          5.39948437
_cell_length_b                          5.85768945215
_cell_length_c                          5.39948472837
_cell_angle_alpha                       117.444461627
_cell_angle_beta                        60.0000021835
_cell_angle_gamma                       117.444460987
_chemical_name_systematic               'Generated by pymatgen'
_symmetry_Int_Tables_number             1
_chemical_formula_structural            Li8MnO6
_chemical_formula_sum                   'Li8 Mn1 O6'
_cell_volume                            125.214089254
_cell_formula_units_Z                   1
loop_
  _symmetry_equiv_pos_site_id
  _symmetry_equiv_pos_as_xyz
   1  'x, y, z'
 
loop_
  _atom_site_type_symbol
  _atom_site_label
  _atom_site_symmetry_multiplicity
  _atom_site_fract_x
  _atom_site_fract_y
  _atom_site_fract_z
  _atom_site_attached_hydrogens
  _atom_site_B_iso_or_equiv
  _atom_site_occupancy
   Li  Li1  1  0.097485  0.350665  0.489737  0  .  1
   Li  Li2  1  0.510263  0.649335  0.236557  0  .  1
   Li  Li3  1  0.236557  0.649335  0.902515  0  .  1
   Li  Li4  1  0.342106  0.026320  0.342106  0  .  1
   Li  Li5  1  0.657894  0.973680  0.657894  0  .  1
   Li  Li6  1  0.763443  0.350665  0.097485  0  .  1
   Li  Li7  1  0.489737  0.350665  0.763443  0  .  1
   Li  Li8  1  0.902515  0.649335  0.510263  0  .  1
   Mn  Mn9  1  0.000000  0.000000  0.000000  0  .  1
   O  O10  1  0.229891  0.767879  0.628015  0  .  1
   O  O11  1  0.371985  0.232121  0.090028  0  .  1
   O  O12  1  0.090028  0.232121  0.770109  0  .  1
   O  O13  1  0.909972  0.767879  0.229891  0  .  1
   O  O14  1  0.628015  0.767879  0.909972  0  .  1
   O  O15  1  0.770109  0.232121  0.371985  0  .  1
 
