#\#CIF1.1
##########################################################################
#               Crystallographic Information Format file 
#               Produced by PyCifRW module
# 
#  This is a CIF file.  CIF has been adopted by the International
#  Union of Crystallography as the standard for data archiving and 
#  transmission.
#
#  For information on this file format, follow the CIF links at
#  http://www.iucr.org
##########################################################################

data_Li8TiO6
_symmetry_space_group_name_H-M          'P 1'
_cell_length_a                          5.60440080002
_cell_length_b                          5.60433258773
_cell_length_c                          10.92017701
_cell_angle_alpha                       90.0002244708
_cell_angle_beta                        89.9997665054
_cell_angle_gamma                       120.000173947
_chemical_name_systematic               'Generated by pymatgen'
_symmetry_Int_Tables_number             1
_chemical_formula_structural            Li8TiO6
_chemical_formula_sum                   'Li16 Ti2 O12'
_cell_volume                            297.038426354
_cell_formula_units_Z                   2
loop_
  _symmetry_equiv_pos_site_id
  _symmetry_equiv_pos_as_xyz
   1  'x, y, z'
 
loop_
  _atom_site_type_symbol
  _atom_site_label
  _atom_site_symmetry_multiplicity
  _atom_site_fract_x
  _atom_site_fract_y
  _atom_site_fract_z
  _atom_site_attached_hydrogens
  _atom_site_B_iso_or_equiv
  _atom_site_occupancy
   Li  Li1  1  0.999986  0.683030  0.768204  0  .  1
   Li  Li2  1  -0.000000  0.604554  0.128628  0  .  1
   Li  Li3  1  0.999988  0.395445  0.628627  0  .  1
   Li  Li4  1  0.999999  0.316969  0.268205  0  .  1
   Li  Li5  1  0.333329  0.666676  0.406976  0  .  1
   Li  Li6  1  0.333319  0.666655  0.906974  0  .  1
   Li  Li7  1  0.316947  0.316947  0.768201  0  .  1
   Li  Li8  1  0.395443  0.395453  0.128627  0  .  1
   Li  Li9  1  0.604541  0.604545  0.628627  0  .  1
   Li  Li10  1  0.316966  0.000019  0.268205  0  .  1
   Li  Li11  1  0.683033  0.683052  0.268203  0  .  1
   Li  Li12  1  0.395450  0.999994  0.628626  0  .  1
   Li  Li13  1  0.666654  0.333322  0.906974  0  .  1
   Li  Li14  1  0.666672  0.333347  0.406976  0  .  1
   Li  Li15  1  0.604546  0.000010  0.128627  0  .  1
   Li  Li16  1  0.683026  0.999988  0.768203  0  .  1
   Ti  Ti17  1  0.999989  0.999989  0.995649  0  .  1
   Ti  Ti18  1  0.999995  0.000033  0.495666  0  .  1
   O  O19  1  0.999987  0.686915  0.949078  0  .  1
   O  O20  1  0.999997  0.313071  0.449079  0  .  1
   O  O21  1  0.333329  0.666663  0.216011  0  .  1
   O  O22  1  0.999998  0.000015  0.166293  0  .  1
   O  O23  1  0.999979  0.999978  0.666284  0  .  1
   O  O24  1  0.333333  0.666675  0.716009  0  .  1
   O  O25  1  0.313071  0.313075  0.949072  0  .  1
   O  O26  1  0.313096  0.000012  0.449071  0  .  1
   O  O27  1  0.686893  0.686908  0.449065  0  .  1
   O  O28  1  0.666668  0.333340  0.716010  0  .  1
   O  O29  1  0.666664  0.333332  0.216014  0  .  1
   O  O30  1  0.686902  0.999989  0.949075  0  .  1
 
