#\#CIF1.1
##########################################################################
#               Crystallographic Information Format file 
#               Produced by PyCifRW module
# 
#  This is a CIF file.  CIF has been adopted by the International
#  Union of Crystallography as the standard for data archiving and 
#  transmission.
#
#  For information on this file format, follow the CIF links at
#  http://www.iucr.org
##########################################################################

data_Li8V11O22
_symmetry_space_group_name_H-M          'P 1'
_cell_length_a                          10.3438317672
_cell_length_b                          5.18336864408
_cell_length_c                          8.92672782597
_cell_angle_alpha                       84.9816125128
_cell_angle_beta                        62.232636943
_cell_angle_gamma                       80.2916125042
_chemical_name_systematic               'Generated by pymatgen'
_symmetry_Int_Tables_number             1
_chemical_formula_structural            Li8V11O22
_chemical_formula_sum                   'Li8 V11 O22'
_cell_volume                            417.413522386
_cell_formula_units_Z                   1
loop_
  _symmetry_equiv_pos_site_id
  _symmetry_equiv_pos_as_xyz
   1  'x, y, z'
 
loop_
  _atom_site_type_symbol
  _atom_site_label
  _atom_site_symmetry_multiplicity
  _atom_site_fract_x
  _atom_site_fract_y
  _atom_site_fract_z
  _atom_site_attached_hydrogens
  _atom_site_B_iso_or_equiv
  _atom_site_occupancy
   Li  Li1  1  0.005582  0.988870  0.004214  0  .  1
   Li  Li2  1  0.176235  0.920223  0.177604  0  .  1
   Li  Li3  1  0.274290  0.358278  0.274170  0  .  1
   Li  Li4  1  0.363371  0.802237  0.372219  0  .  1
   Li  Li5  1  0.545172  0.727088  0.548648  0  .  1
   Li  Li6  1  0.636649  0.182004  0.633170  0  .  1
   Li  Li7  1  0.818449  0.106854  0.809601  0  .  1
   Li  Li8  1  0.907529  0.550812  0.907650  0  .  1
   V  V9  1  0.038469  0.731184  0.553057  0  .  1
   V  V10  1  0.504844  0.995113  0.995273  0  .  1
   V  V11  1  0.590909  0.454538  0.090911  0  .  1
   V  V12  1  0.143349  0.177901  0.628765  0  .  1
   V  V13  1  0.676976  0.913965  0.186542  0  .  1
   V  V14  1  0.227200  0.631526  0.730105  0  .  1
   V  V15  1  0.313095  0.101906  0.818826  0  .  1
   V  V16  1  0.772023  0.359808  0.269143  0  .  1
   V  V17  1  0.868722  0.807193  0.362995  0  .  1
   V  V18  1  0.409799  0.549287  0.912664  0  .  1
   V  V19  1  0.954620  0.277554  0.451712  0  .  1
   O  O20  1  0.316377  0.222065  0.025736  0  .  1
   O  O21  1  0.050829  0.608926  0.332472  0  .  1
   O  O22  1  0.399166  0.673110  0.126704  0  .  1
   O  O23  1  0.149594  0.044205  0.416724  0  .  1
   O  O24  1  0.032217  0.864904  0.765096  0  .  1
   O  O25  1  0.232008  0.508137  0.518182  0  .  1
   O  O26  1  0.490775  0.140983  0.206672  0  .  1
   O  O27  1  0.329409  0.945703  0.608985  0  .  1
   O  O28  1  0.130987  0.300176  0.849354  0  .  1
   O  O29  1  0.574858  0.594620  0.295047  0  .  1
   O  O30  1  0.782660  0.235962  0.055109  0  .  1
   O  O31  1  0.682760  0.032066  0.396640  0  .  1
   O  O32  1  0.217788  0.791809  0.936757  0  .  1
   O  O33  1  0.865442  0.687031  0.156071  0  .  1
   O  O34  1  0.420932  0.410501  0.705521  0  .  1
   O  O35  1  0.499053  0.877025  0.785179  0  .  1
   O  O36  1  0.964031  0.117283  0.245059  0  .  1
   O  O37  1  0.760874  0.498596  0.476297  0  .  1
   O  O38  1  0.606960  0.314469  0.886772  0  .  1
   O  O39  1  0.852410  0.963399  0.572833  0  .  1
   O  O40  1  0.691052  0.768096  0.975149  0  .  1
   O  O41  1  0.949811  0.400955  0.663646  0  .  1
 
