#\#CIF1.1
##########################################################################
#               Crystallographic Information Format file 
#               Produced by PyCifRW module
# 
#  This is a CIF file.  CIF has been adopted by the International
#  Union of Crystallography as the standard for data archiving and 
#  transmission.
#
#  For information on this file format, follow the CIF links at
#  http://www.iucr.org
##########################################################################

data_Li9(FeO4)2
_symmetry_space_group_name_H-M          'P 1'
_cell_length_a                          6.47799958605
_cell_length_b                          6.47795051495
_cell_length_c                          4.69459544613
_cell_angle_alpha                       89.7142366139
_cell_angle_beta                        90.2845240104
_cell_angle_gamma                       90.3600516228
_chemical_name_systematic               'Generated by pymatgen'
_symmetry_Int_Tables_number             1
_chemical_formula_structural            Li9(FeO4)2
_chemical_formula_sum                   'Li9 Fe2 O8'
_cell_volume                            196.996019364
_cell_formula_units_Z                   1
loop_
  _symmetry_equiv_pos_site_id
  _symmetry_equiv_pos_as_xyz
   1  'x, y, z'
 
loop_
  _atom_site_type_symbol
  _atom_site_label
  _atom_site_symmetry_multiplicity
  _atom_site_fract_x
  _atom_site_fract_y
  _atom_site_fract_z
  _atom_site_attached_hydrogens
  _atom_site_B_iso_or_equiv
  _atom_site_occupancy
   Li  Li1  1  0.049425  0.549426  0.750004  0  .  1
   Li  Li2  1  0.248392  0.251765  0.688115  0  .  1
   Li  Li3  1  0.267119  0.227251  0.177150  0  .  1
   Li  Li4  1  0.465619  0.965626  0.749983  0  .  1
   Li  Li5  1  0.535970  0.455598  0.245898  0  .  1
   Li  Li6  1  0.727231  0.767136  0.322850  0  .  1
   Li  Li7  1  0.751769  0.748411  0.811889  0  .  1
   Li  Li8  1  0.955607  0.035988  0.254096  0  .  1
   Li  Li9  1  0.968358  0.468382  0.250005  0  .  1
   Fe  Fe10  1  0.253287  0.753298  0.250005  0  .  1
   Fe  Fe11  1  0.750605  0.250614  0.750004  0  .  1
   O  O12  1  0.006818  0.270252  0.961714  0  .  1
   O  O13  1  0.241820  0.998855  0.439337  0  .  1
   O  O14  1  0.246345  0.489716  0.422012  0  .  1
   O  O15  1  0.494708  0.243927  0.936575  0  .  1
   O  O16  1  0.498851  0.741821  0.060661  0  .  1
   O  O17  1  0.743943  0.994727  0.563416  0  .  1
   O  O18  1  0.770229  0.506830  0.538299  0  .  1
   O  O19  1  0.989714  0.746366  0.077988  0  .  1
 
