#\#CIF1.1
##########################################################################
#               Crystallographic Information Format file 
#               Produced by PyCifRW module
# 
#  This is a CIF file.  CIF has been adopted by the International
#  Union of Crystallography as the standard for data archiving and 
#  transmission.
#
#  For information on this file format, follow the CIF links at
#  http://www.iucr.org
##########################################################################

data_Li9(CoO4)2
_symmetry_space_group_name_H-M          'P 1'
_cell_length_a                          6.39903715093
_cell_length_b                          6.39902847172
_cell_length_c                          4.7428513012
_cell_angle_alpha                       89.4150142567
_cell_angle_beta                        90.5846750188
_cell_angle_gamma                       90.6164416348
_chemical_name_systematic               'Generated by pymatgen'
_symmetry_Int_Tables_number             1
_chemical_formula_structural            Li9(CoO4)2
_chemical_formula_sum                   'Li9 Co2 O8'
_cell_volume                            194.177219147
_cell_formula_units_Z                   1
loop_
  _symmetry_equiv_pos_site_id
  _symmetry_equiv_pos_as_xyz
   1  'x, y, z'
 
loop_
  _atom_site_type_symbol
  _atom_site_label
  _atom_site_symmetry_multiplicity
  _atom_site_fract_x
  _atom_site_fract_y
  _atom_site_fract_z
  _atom_site_attached_hydrogens
  _atom_site_B_iso_or_equiv
  _atom_site_occupancy
   Li  Li1  1  0.066913  0.566918  0.750002  0  .  1
   Li  Li2  1  0.242283  0.247640  0.677818  0  .  1
   Li  Li3  1  0.271690  0.223426  0.182892  0  .  1
   Li  Li4  1  0.453116  0.953126  0.749998  0  .  1
   Li  Li5  1  0.529836  0.463050  0.246469  0  .  1
   Li  Li6  1  0.723417  0.771700  0.317107  0  .  1
   Li  Li7  1  0.747637  0.742300  0.822181  0  .  1
   Li  Li8  1  0.963041  0.029844  0.253533  0  .  1
   Li  Li9  1  0.972019  0.472027  0.250001  0  .  1
   Co  Co10  1  0.255703  0.755711  0.249999  0  .  1
   Co  Co11  1  0.751756  0.251768  0.750001  0  .  1
   O  O12  1  0.997071  0.267245  0.960421  0  .  1
   O  O13  1  0.241498  0.001696  0.448586  0  .  1
   O  O14  1  0.245986  0.482091  0.422248  0  .  1
   O  O15  1  0.508532  0.244317  0.938528  0  .  1
   O  O16  1  0.501689  0.741509  0.051413  0  .  1
   O  O17  1  0.744304  0.008545  0.561468  0  .  1
   O  O18  1  0.767237  0.497083  0.539581  0  .  1
   O  O19  1  0.982085  0.745994  0.077752  0  .  1
 
