#\#CIF1.1
##########################################################################
#               Crystallographic Information Format file 
#               Produced by PyCifRW module
# 
#  This is a CIF file.  CIF has been adopted by the International
#  Union of Crystallography as the standard for data archiving and 
#  transmission.
#
#  For information on this file format, follow the CIF links at
#  http://www.iucr.org
##########################################################################

data_Li9(NiO4)2
_symmetry_space_group_name_H-M          'P 1'
_cell_length_a                          9.40897416
_cell_length_b                          9.13947177
_cell_length_c                          9.1382238
_cell_angle_alpha                       90.0
_cell_angle_beta                        90.0
_cell_angle_gamma                       90.0
_chemical_name_systematic               'Generated by pymatgen'
_symmetry_Int_Tables_number             1
_chemical_formula_structural            Li9(NiO4)2
_chemical_formula_sum                   'Li36 Ni8 O32'
_cell_volume                            785.823770139
_cell_formula_units_Z                   4
loop_
  _symmetry_equiv_pos_site_id
  _symmetry_equiv_pos_as_xyz
   1  'x, y, z'
 
loop_
  _atom_site_type_symbol
  _atom_site_label
  _atom_site_symmetry_multiplicity
  _atom_site_fract_x
  _atom_site_fract_y
  _atom_site_fract_z
  _atom_site_attached_hydrogens
  _atom_site_B_iso_or_equiv
  _atom_site_occupancy
   Li  Li1  1  0.105440  0.633243  0.136006  0  .  1
   Li  Li2  1  0.105440  0.866757  0.636006  0  .  1
   Li  Li3  1  0.116523  0.111591  0.835636  0  .  1
   Li  Li4  1  0.116523  0.388409  0.335636  0  .  1
   Li  Li5  1  0.116554  0.846096  0.357667  0  .  1
   Li  Li6  1  0.116554  0.653904  0.857667  0  .  1
   Li  Li7  1  0.161512  0.121341  0.418829  0  .  1
   Li  Li8  1  0.161512  0.378659  0.918829  0  .  1
   Li  Li9  1  0.338488  0.878659  0.918829  0  .  1
   Li  Li10  1  0.338488  0.621341  0.418829  0  .  1
   Li  Li11  1  0.383446  0.153904  0.857667  0  .  1
   Li  Li12  1  0.383446  0.346096  0.357667  0  .  1
   Li  Li13  1  0.383477  0.611591  0.835636  0  .  1
   Li  Li14  1  0.383477  0.888409  0.335636  0  .  1
   Li  Li15  1  0.394560  0.133243  0.136006  0  .  1
   Li  Li16  1  0.394560  0.366757  0.636006  0  .  1
   Li  Li17  1  0.611971  0.616906  0.359848  0  .  1
   Li  Li18  1  0.611971  0.883094  0.859848  0  .  1
   Li  Li19  1  0.607915  0.111240  0.652326  0  .  1
   Li  Li20  1  0.607915  0.388760  0.152326  0  .  1
   Li  Li21  1  0.619513  0.652458  0.628316  0  .  1
   Li  Li22  1  0.619513  0.847542  0.128316  0  .  1
   Li  Li23  1  0.647936  0.619165  0.897291  0  .  1
   Li  Li24  1  0.647936  0.880835  0.397291  0  .  1
   Li  Li25  1  0.660682  0.114885  0.104509  0  .  1
   Li  Li26  1  0.660682  0.385115  0.604509  0  .  1
   Li  Li27  1  0.839318  0.614885  0.104509  0  .  1
   Li  Li28  1  0.839318  0.885115  0.604509  0  .  1
   Li  Li29  1  0.852064  0.380835  0.397291  0  .  1
   Li  Li30  1  0.852064  0.119165  0.897291  0  .  1
   Li  Li31  1  0.880487  0.152458  0.628316  0  .  1
   Li  Li32  1  0.880487  0.347542  0.128316  0  .  1
   Li  Li33  1  0.892085  0.611240  0.652326  0  .  1
   Li  Li34  1  0.892085  0.888760  0.152326  0  .  1
   Li  Li35  1  0.888029  0.116906  0.359848  0  .  1
   Li  Li36  1  0.888029  0.383094  0.859848  0  .  1
   Ni  Ni37  1  0.121865  0.129282  0.122371  0  .  1
   Ni  Ni38  1  0.121865  0.370718  0.622371  0  .  1
   Ni  Ni39  1  0.378135  0.629282  0.122371  0  .  1
   Ni  Ni40  1  0.378135  0.870718  0.622371  0  .  1
   Ni  Ni41  1  0.619831  0.149712  0.377798  0  .  1
   Ni  Ni42  1  0.619831  0.350288  0.877798  0  .  1
   Ni  Ni43  1  0.880169  0.649712  0.377798  0  .  1
   Ni  Ni44  1  0.880169  0.850288  0.877798  0  .  1
   O  O45  1  0.005395  0.265087  0.495619  0  .  1
   O  O46  1  0.005395  0.234913  0.995619  0  .  1
   O  O47  1  0.027991  0.016037  0.253357  0  .  1
   O  O48  1  0.027991  0.483963  0.753357  0  .  1
   O  O49  1  0.251908  0.058756  0.993109  0  .  1
   O  O50  1  0.251908  0.441244  0.493109  0  .  1
   O  O51  1  0.238276  0.227878  0.248413  0  .  1
   O  O52  1  0.238276  0.272122  0.748413  0  .  1
   O  O53  1  0.261724  0.727878  0.248413  0  .  1
   O  O54  1  0.261724  0.772122  0.748413  0  .  1
   O  O55  1  0.248092  0.558756  0.993109  0  .  1
   O  O56  1  0.248092  0.941244  0.493109  0  .  1
   O  O57  1  0.472009  0.516037  0.253357  0  .  1
   O  O58  1  0.472009  0.983963  0.753357  0  .  1
   O  O59  1  0.494605  0.765087  0.495619  0  .  1
   O  O60  1  0.494605  0.734913  0.995619  0  .  1
   O  O61  1  0.520601  0.240018  0.003502  0  .  1
   O  O62  1  0.520601  0.259982  0.503502  0  .  1
   O  O63  1  0.535762  0.011562  0.253138  0  .  1
   O  O64  1  0.535762  0.488438  0.753138  0  .  1
   O  O65  1  0.744704  0.039595  0.498222  0  .  1
   O  O66  1  0.744704  0.460405  0.998222  0  .  1
   O  O67  1  0.746949  0.250165  0.259428  0  .  1
   O  O68  1  0.746949  0.249835  0.759428  0  .  1
   O  O69  1  0.753051  0.750165  0.259428  0  .  1
   O  O70  1  0.753051  0.749835  0.759428  0  .  1
   O  O71  1  0.755296  0.539595  0.498222  0  .  1
   O  O72  1  0.755296  0.960405  0.998222  0  .  1
   O  O73  1  0.964238  0.988438  0.753138  0  .  1
   O  O74  1  0.964238  0.511562  0.253138  0  .  1
   O  O75  1  0.979399  0.740018  0.003502  0  .  1
   O  O76  1  0.979399  0.759982  0.503502  0  .  1
 
