#\#CIF1.1
##########################################################################
#               Crystallographic Information Format file 
#               Produced by PyCifRW module
# 
#  This is a CIF file.  CIF has been adopted by the International
#  Union of Crystallography as the standard for data archiving and 
#  transmission.
#
#  For information on this file format, follow the CIF links at
#  http://www.iucr.org
##########################################################################

data_Li9Co9O17
_symmetry_space_group_name_H-M          'P 1'
_cell_length_a                          46.206874415
_cell_length_b                          25.0036780757
_cell_length_c                          9.85115461961
_cell_angle_alpha                       14.7995725415
_cell_angle_beta                        16.5689733517
_cell_angle_gamma                       6.47174185466
_chemical_name_systematic               'Generated by pymatgen'
_symmetry_Int_Tables_number             1
_chemical_formula_structural            Li9Co9O17
_chemical_formula_sum                   'Li9 Co9 O17'
_cell_volume                            326.739787024
_cell_formula_units_Z                   1
loop_
  _symmetry_equiv_pos_site_id
  _symmetry_equiv_pos_as_xyz
   1  'x, y, z'
 
loop_
  _atom_site_type_symbol
  _atom_site_label
  _atom_site_symmetry_multiplicity
  _atom_site_fract_x
  _atom_site_fract_y
  _atom_site_fract_z
  _atom_site_attached_hydrogens
  _atom_site_B_iso_or_equiv
  _atom_site_occupancy
   Li  Li1  1  0.109252  0.502540  0.502126  0  .  1
   Li  Li2  1  0.254717  0.424458  0.533293  0  .  1
   Li  Li3  1  0.335321  0.498679  0.494751  0  .  1
   Li  Li4  1  0.436258  0.516958  0.496361  0  .  1
   Li  Li5  1  0.558630  0.496445  0.495874  0  .  1
   Li  Li6  1  0.641509  0.529000  0.532446  0  .  1
   Li  Li7  1  0.783846  0.486613  0.505291  0  .  1
   Li  Li8  1  0.882986  0.533496  0.437199  0  .  1
   Li  Li9  1  0.001799  0.498838  0.496352  0  .  1
   Co  Co10  1  0.001979  0.997004  -0.001331  0  .  1
   Co  Co11  1  0.118819  0.991417  0.992298  0  .  1
   Co  Co12  1  0.219384  0.004731  0.000669  0  .  1
   Co  Co13  1  0.338842  0.987180  0.006979  0  .  1
   Co  Co14  1  0.448292  0.992769  0.000014  0  .  1
   Co  Co15  1  0.536878  0.038552  0.996256  0  .  1
   Co  Co16  1  0.670036  0.001093  0.979964  0  .  1
   Co  Co17  1  0.778393  0.997058  0.005145  0  .  1
   Co  Co18  1  0.887399  -0.003052  0.018712  0  .  1
   O  O19  1  0.102424  0.246094  0.312028  0  .  1
   O  O20  1  0.229150  0.247245  0.235780  0  .  1
   O  O21  1  0.331111  0.243198  0.284922  0  .  1
   O  O22  1  0.994993  0.754422  0.752873  0  .  1
   O  O23  1  0.425155  0.299435  0.226834  0  .  1
   O  O24  1  0.112736  0.763392  0.690626  0  .  1
   O  O25  1  0.553302  0.259170  0.248996  0  .  1
   O  O26  1  0.200914  0.788953  0.746115  0  .  1
   O  O27  1  0.668330  0.253488  0.238162  0  .  1
   O  O28  1  0.350000  0.734430  0.706929  0  .  1
   O  O29  1  0.781980  0.243390  0.257493  0  .  1
   O  O30  1  0.443590  0.747767  0.749985  0  .  1
   O  O31  1  0.564883  0.734756  0.735134  0  .  1
   O  O32  1  0.995835  0.257026  0.259078  0  .  1
   O  O33  1  0.660813  0.755631  0.754265  0  .  1
   O  O34  1  0.800276  0.692535  0.775026  0  .  1
   O  O35  1  0.895902  0.724888  0.772955  0  .  1
 
