#\#CIF1.1
##########################################################################
#               Crystallographic Information Format file 
#               Produced by PyCifRW module
# 
#  This is a CIF file.  CIF has been adopted by the International
#  Union of Crystallography as the standard for data archiving and 
#  transmission.
#
#  For information on this file format, follow the CIF links at
#  http://www.iucr.org
##########################################################################

data_Li9Cr19O48
_symmetry_space_group_name_H-M          'P 1'
_cell_length_a                          5.0542201941
_cell_length_b                          10.1880875152
_cell_length_c                          17.2667727928
_cell_angle_alpha                       90.3930686915
_cell_angle_beta                        89.6173249408
_cell_angle_gamma                       89.9831198876
_chemical_name_systematic               'Generated by pymatgen'
_symmetry_Int_Tables_number             1
_chemical_formula_structural            Li9Cr19O48
_chemical_formula_sum                   'Li9 Cr19 O48'
_cell_volume                            889.074323687
_cell_formula_units_Z                   1
loop_
  _symmetry_equiv_pos_site_id
  _symmetry_equiv_pos_as_xyz
   1  'x, y, z'
 
loop_
  _atom_site_type_symbol
  _atom_site_label
  _atom_site_symmetry_multiplicity
  _atom_site_fract_x
  _atom_site_fract_y
  _atom_site_fract_z
  _atom_site_attached_hydrogens
  _atom_site_B_iso_or_equiv
  _atom_site_occupancy
   Li  Li1  1  0.091340  0.250420  0.249396  0  .  1
   Li  Li2  1  0.250413  0.420817  0.974168  0  .  1
   Li  Li3  1  0.250793  0.575067  0.468811  0  .  1
   Li  Li4  1  0.250904  0.924506  0.467821  0  .  1
   Li  Li5  1  0.251305  0.252839  0.804606  0  .  1
   Li  Li6  1  0.746494  0.747705  0.195683  0  .  1
   Li  Li7  1  0.748559  0.918311  0.028421  0  .  1
   Li  Li8  1  0.761166  0.251910  0.699149  0  .  1
   Li  Li9  1  0.906199  0.748760  0.751247  0  .  1
   Cr  Cr10  1  0.223556  0.748619  0.943606  0  .  1
   Cr  Cr11  1  0.228431  0.028987  0.654572  0  .  1
   Cr  Cr12  1  0.228476  0.470733  0.654016  0  .  1
   Cr  Cr13  1  0.254415  0.742323  0.302280  0  .  1
   Cr  Cr14  1  0.251867  0.069684  0.976818  0  .  1
   Cr  Cr15  1  0.285769  0.526816  0.155210  0  .  1
   Cr  Cr16  1  0.277081  0.974632  0.155810  0  .  1
   Cr  Cr17  1  0.289041  0.249402  0.442487  0  .  1
   Cr  Cr18  1  0.405644  0.749425  0.752833  0  .  1
   Cr  Cr19  1  0.592241  0.251279  0.247831  0  .  1
   Cr  Cr20  1  0.717961  0.750338  0.558312  0  .  1
   Cr  Cr21  1  0.722323  0.474461  0.843879  0  .  1
   Cr  Cr22  1  0.721044  0.026834  0.846454  0  .  1
   Cr  Cr23  1  0.758163  0.073230  0.521939  0  .  1
   Cr  Cr24  1  0.757735  0.426758  0.521847  0  .  1
   Cr  Cr25  1  0.751118  0.569686  0.026942  0  .  1
   Cr  Cr26  1  0.777462  0.527483  0.343384  0  .  1
   Cr  Cr27  1  0.776400  0.970978  0.342476  0  .  1
   Cr  Cr28  1  0.779095  0.249791  0.056289  0  .  1
   O  O29  1  0.053695  0.239763  0.994065  0  .  1
   O  O30  1  0.054077  0.617783  0.369742  0  .  1
   O  O31  1  0.054418  0.881649  0.366797  0  .  1
   O  O32  1  0.109258  0.631479  0.217408  0  .  1
   O  O33  1  0.088106  0.880460  0.210959  0  .  1
   O  O34  1  0.089123  0.116161  0.467676  0  .  1
   O  O35  1  0.088973  0.383503  0.467557  0  .  1
   O  O36  1  0.092088  0.009507  0.076265  0  .  1
   O  O37  1  0.075348  0.498593  0.078069  0  .  1
   O  O38  1  0.170592  0.749725  0.842649  0  .  1
   O  O39  1  0.171235  0.614735  0.701606  0  .  1
   O  O40  1  0.170988  0.885899  0.701822  0  .  1
   O  O41  1  0.351194  0.114754  0.203994  0  .  1
   O  O42  1  0.349266  0.383325  0.203939  0  .  1
   O  O43  1  0.347855  0.249539  0.345920  0  .  1
   O  O44  1  0.421230  0.498103  0.576598  0  .  1
   O  O45  1  0.421800  0.002269  0.576956  0  .  1
   O  O46  1  0.402807  0.889335  0.965724  0  .  1
   O  O47  1  0.427196  0.619462  0.965998  0  .  1
   O  O48  1  0.397916  0.125374  0.710727  0  .  1
   O  O49  1  0.400515  0.374283  0.708482  0  .  1
   O  O50  1  0.443149  0.108892  0.874904  0  .  1
   O  O51  1  0.455129  0.392616  0.868765  0  .  1
   O  O52  1  0.456278  0.749783  0.502493  0  .  1
   O  O53  1  0.575009  0.250011  0.508586  0  .  1
   O  O54  1  0.560262  0.616648  0.123345  0  .  1
   O  O55  1  0.544345  0.893962  0.130438  0  .  1
   O  O56  1  0.566850  0.624333  0.291024  0  .  1
   O  O57  1  0.561529  0.870438  0.292524  0  .  1
   O  O58  1  0.572550  0.119559  0.033195  0  .  1
   O  O59  1  0.597389  0.389418  0.034260  0  .  1
   O  O60  1  0.595755  0.009851  0.427372  0  .  1
   O  O61  1  0.594985  0.489135  0.427334  0  .  1
   O  O62  1  0.639521  0.750982  0.653693  0  .  1
   O  O63  1  0.646226  0.614950  0.794516  0  .  1
   O  O64  1  0.646747  0.886419  0.797656  0  .  1
   O  O65  1  0.826593  0.116117  0.294336  0  .  1
   O  O66  1  0.831261  0.382314  0.294862  0  .  1
   O  O67  1  0.826831  0.249530  0.155749  0  .  1
   O  O68  1  0.905158  0.509484  0.922733  0  .  1
   O  O69  1  0.916951  0.995492  0.922024  0  .  1
   O  O70  1  0.901183  0.616186  0.537351  0  .  1
   O  O71  1  0.901377  0.883816  0.537151  0  .  1
   O  O72  1  0.893981  0.121946  0.790052  0  .  1
   O  O73  1  0.909933  0.380100  0.788872  0  .  1
   O  O74  1  0.945153  0.105973  0.626868  0  .  1
   O  O75  1  0.944720  0.393972  0.625914  0  .  1
   O  O76  1  0.948464  0.740574  0.004740  0  .  1
 
