#\#CIF1.1
##########################################################################
#               Crystallographic Information Format file 
#               Produced by PyCifRW module
# 
#  This is a CIF file.  CIF has been adopted by the International
#  Union of Crystallography as the standard for data archiving and 
#  transmission.
#
#  For information on this file format, follow the CIF links at
#  http://www.iucr.org
##########################################################################

data_Li9Mn20O40
_symmetry_space_group_name_H-M          'P 1'
_cell_length_a                          30.0848519968
_cell_length_b                          16.0519231747
_cell_length_c                          10.2004199149
_cell_angle_alpha                       29.5436477221
_cell_angle_beta                        30.04129177
_cell_angle_gamma                       18.4779166373
_chemical_name_systematic               'Generated by pymatgen'
_symmetry_Int_Tables_number             1
_chemical_formula_structural            Li9Mn20O40
_chemical_formula_sum                   'Li9 Mn20 O40'
_cell_volume                            743.477719123
_cell_formula_units_Z                   1
loop_
  _symmetry_equiv_pos_site_id
  _symmetry_equiv_pos_as_xyz
   1  'x, y, z'
 
loop_
  _atom_site_type_symbol
  _atom_site_label
  _atom_site_symmetry_multiplicity
  _atom_site_fract_x
  _atom_site_fract_y
  _atom_site_fract_z
  _atom_site_attached_hydrogens
  _atom_site_B_iso_or_equiv
  _atom_site_occupancy
   Li  Li1  1  0.153810  0.118089  0.125518  0  .  1
   Li  Li2  1  0.354785  0.106752  0.133777  0  .  1
   Li  Li3  1  0.544968  0.125012  0.134740  0  .  1
   Li  Li4  1  0.047341  0.879487  0.878635  0  .  1
   Li  Li5  1  0.748077  0.128863  0.122508  0  .  1
   Li  Li6  1  0.248129  0.883006  0.872503  0  .  1
   Li  Li7  1  0.451253  0.883178  0.861680  0  .  1
   Li  Li8  1  0.647244  0.883876  0.871725  0  .  1
   Li  Li9  1  0.849219  0.875850  0.873276  0  .  1
   Mn  Mn10  1  -0.000133  0.505314  0.493048  0  .  1
   Mn  Mn11  1  0.103667  0.486508  0.506283  0  .  1
   Mn  Mn12  1  0.197073  0.499868  0.503643  0  .  1
   Mn  Mn13  1  0.100049  0.504497  0.992547  0  .  1
   Mn  Mn14  1  0.000291  0.005899  0.493936  0  .  1
   Mn  Mn15  1  0.301700  0.492036  0.504237  0  .  1
   Mn  Mn16  1  0.397472  0.504174  0.499135  0  .  1
   Mn  Mn17  1  0.292709  0.510843  0.001932  0  .  1
   Mn  Mn18  1  0.202042  0.007872  0.486707  0  .  1
   Mn  Mn19  1  0.497225  0.503634  0.501741  0  .  1
   Mn  Mn20  1  0.603763  0.490295  0.504088  0  .  1
   Mn  Mn21  1  0.401481  0.994555  0.500779  0  .  1
   Mn  Mn22  1  0.501721  0.494171  0.000654  0  .  1
   Mn  Mn23  1  0.696952  0.514019  0.490311  0  .  1
   Mn  Mn24  1  0.800160  0.505654  0.496002  0  .  1
   Mn  Mn25  1  0.596784  -0.000669  0.509238  0  .  1
   Mn  Mn26  1  0.703394  0.489140  0.005579  0  .  1
   Mn  Mn27  1  0.897854  0.507406  0.497469  0  .  1
   Mn  Mn28  1  0.898323  0.507853  0.001906  0  .  1
   Mn  Mn29  1  0.793862  0.001732  0.510639  0  .  1
   O  O30  1  0.098532  0.272369  0.243701  0  .  1
   O  O31  1  0.008209  0.279508  0.686028  0  .  1
   O  O32  1  0.186125  0.260570  0.260162  0  .  1
   O  O33  1  0.081674  0.296515  0.735037  0  .  1
   O  O34  1  0.292705  0.246304  0.283927  0  .  1
   O  O35  1  0.207123  0.242569  0.721771  0  .  1
   O  O36  1  0.113076  0.690476  0.286058  0  .  1
   O  O37  1  0.382460  0.252645  0.274280  0  .  1
   O  O38  1  0.016917  0.723534  0.751408  0  .  1
   O  O39  1  0.285202  0.293892  0.730118  0  .  1
   O  O40  1  0.196569  0.741924  0.284202  0  .  1
   O  O41  1  0.107914  0.721930  0.750093  0  .  1
   O  O42  1  0.491679  0.246572  0.289305  0  .  1
   O  O43  1  0.405627  0.246194  0.725527  0  .  1
   O  O44  1  0.312108  0.699497  0.282122  0  .  1
   O  O45  1  0.586272  0.243360  0.279034  0  .  1
   O  O46  1  0.208039  0.771690  0.712736  0  .  1
   O  O47  1  0.479297  0.308567  0.726534  0  .  1
   O  O48  1  0.393985  0.753425  0.275815  0  .  1
   O  O49  1  0.303751  0.759229  0.712678  0  .  1
   O  O50  1  0.690650  0.244919  0.295611  0  .  1
   O  O51  1  0.602813  0.250659  0.724308  0  .  1
   O  O52  1  0.517251  0.694815  0.276133  0  .  1
   O  O53  1  0.786027  0.233373  0.290162  0  .  1
   O  O54  1  0.414170  0.748909  0.727143  0  .  1
   O  O55  1  0.683896  0.281632  0.746861  0  .  1
   O  O56  1  0.591092  0.752907  0.278772  0  .  1
   O  O57  1  0.501526  0.756542  0.720643  0  .  1
   O  O58  1  0.894379  0.289818  0.239161  0  .  1
   O  O59  1  0.719860  0.726094  0.243215  0  .  1
   O  O60  1  0.803136  0.283086  0.697861  0  .  1
   O  O61  1  0.980284  0.290125  0.246641  0  .  1
   O  O62  1  0.615143  0.745625  0.728729  0  .  1
   O  O63  1  0.883128  0.283303  0.743048  0  .  1
   O  O64  1  0.792093  0.735938  0.296435  0  .  1
   O  O65  1  0.702154  0.753435  0.724226  0  .  1
   O  O66  1  0.922244  0.720917  0.238950  0  .  1
   O  O67  1  0.815554  0.740210  0.737014  0  .  1
   O  O68  1  0.993084  0.731291  0.299396  0  .  1
   O  O69  1  0.905617  0.733170  0.738824  0  .  1
 
