#\#CIF1.1
##########################################################################
#               Crystallographic Information Format file 
#               Produced by PyCifRW module
# 
#  This is a CIF file.  CIF has been adopted by the International
#  Union of Crystallography as the standard for data archiving and 
#  transmission.
#
#  For information on this file format, follow the CIF links at
#  http://www.iucr.org
##########################################################################

data_Li9Mn22O48
_symmetry_space_group_name_H-M          'P 1'
_cell_length_a                          5.88669276617
_cell_length_b                          5.87716162734
_cell_length_c                          35.043605647
_cell_angle_alpha                       59.7927071036
_cell_angle_beta                        60.7223477321
_cell_angle_gamma                       60.0535409261
_chemical_name_systematic               'Generated by pymatgen'
_symmetry_Int_Tables_number             1
_chemical_formula_structural            Li9Mn22O48
_chemical_formula_sum                   'Li9 Mn22 O48'
_cell_volume                            860.859090159
_cell_formula_units_Z                   1
loop_
  _symmetry_equiv_pos_site_id
  _symmetry_equiv_pos_as_xyz
   1  'x, y, z'
 
loop_
  _atom_site_type_symbol
  _atom_site_label
  _atom_site_symmetry_multiplicity
  _atom_site_fract_x
  _atom_site_fract_y
  _atom_site_fract_z
  _atom_site_attached_hydrogens
  _atom_site_B_iso_or_equiv
  _atom_site_occupancy
   Li  Li1  1  0.133853  0.115277  0.022599  0  .  1
   Li  Li2  1  0.131591  0.132742  0.183821  0  .  1
   Li  Li3  1  0.133048  0.115524  0.355984  0  .  1
   Li  Li4  1  0.866349  0.884376  0.144149  0  .  1
   Li  Li5  1  0.132513  0.130279  0.517821  0  .  1
   Li  Li6  1  0.867810  0.867203  0.316297  0  .  1
   Li  Li7  1  0.865329  0.885144  0.477397  0  .  1
   Li  Li8  1  0.866897  0.879452  0.812367  0  .  1
   Li  Li9  1  0.871178  0.867142  0.982423  0  .  1
   Mn  Mn10  1  0.496891  0.494109  0.002482  0  .  1
   Mn  Mn11  1  0.500403  0.499963  0.083298  0  .  1
   Mn  Mn12  1  0.999576  0.499892  0.250107  0  .  1
   Mn  Mn13  1  0.500403  0.999841  0.083298  0  .  1
   Mn  Mn14  1  0.504516  0.505228  0.164172  0  .  1
   Mn  Mn15  1  0.499603  0.499889  0.250095  0  .  1
   Mn  Mn16  1  0.499603  0.999939  0.250095  0  .  1
   Mn  Mn17  1  0.494450  0.494736  0.336013  0  .  1
   Mn  Mn18  1  0.498750  0.499763  0.416875  0  .  1
   Mn  Mn19  1  0.498750  0.000240  0.416875  0  .  1
   Mn  Mn20  1  0.505124  0.504988  0.497483  0  .  1
   Mn  Mn21  1  0.000753  0.502169  0.749151  0  .  1
   Mn  Mn22  1  0.500333  0.498927  0.583525  0  .  1
   Mn  Mn23  1  0.500333  0.999587  0.583525  0  .  1
   Mn  Mn24  1  0.508915  0.495542  0.666667  0  .  1
   Mn  Mn25  1  0.001375  0.498200  0.583704  0  .  1
   Mn  Mn26  1  0.499415  0.501355  0.749398  0  .  1
   Mn  Mn27  1  0.499415  0.002841  0.749398  0  .  1
   Mn  Mn28  1  0.490247  0.503169  0.833902  0  .  1
   Mn  Mn29  1  0.500073  0.499364  0.916763  0  .  1
   Mn  Mn30  1  0.500073  0.999988  0.916763  0  .  1
   Mn  Mn31  1  0.000020  0.500246  0.916582  0  .  1
   O  O32  1  0.310144  0.247134  0.037833  0  .  1
   O  O33  1  0.310144  0.715723  0.037833  0  .  1
   O  O34  1  0.296043  0.251048  0.116977  0  .  1
   O  O35  1  0.717193  0.258095  0.044436  0  .  1
   O  O36  1  0.283637  0.741510  0.122224  0  .  1
   O  O37  1  0.255084  0.263638  0.212036  0  .  1
   O  O38  1  0.690793  0.284187  0.128719  0  .  1
   O  O39  1  0.704685  0.749110  0.049516  0  .  1
   O  O40  1  0.255084  0.709062  0.212036  0  .  1
   O  O41  1  0.256540  0.264510  0.285740  0  .  1
   O  O42  1  0.690793  0.752708  0.128719  0  .  1
   O  O43  1  0.704380  0.264696  0.211038  0  .  1
   O  O44  1  0.308075  0.247119  0.371539  0  .  1
   O  O45  1  0.294774  0.735074  0.289180  0  .  1
   O  O46  1  0.308075  0.715567  0.371539  0  .  1
   O  O47  1  0.742605  0.735260  0.214479  0  .  1
   O  O48  1  0.743970  0.290746  0.288196  0  .  1
   O  O49  1  0.294750  0.250435  0.450730  0  .  1
   O  O50  1  0.715402  0.258339  0.377986  0  .  1
   O  O51  1  0.743970  0.736108  0.288196  0  .  1
   O  O52  1  0.282304  0.740859  0.455996  0  .  1
   O  O53  1  0.256769  0.262280  0.545465  0  .  1
   O  O54  1  0.256769  0.708158  0.545465  0  .  1
   O  O55  1  0.690513  0.283736  0.462217  0  .  1
   O  O56  1  0.271576  0.262775  0.617146  0  .  1
   O  O57  1  0.702690  0.749158  0.383166  0  .  1
   O  O58  1  0.705665  0.263933  0.544412  0  .  1
   O  O59  1  0.690513  0.752451  0.462217  0  .  1
   O  O60  1  0.292554  0.257007  0.707005  0  .  1
   O  O61  1  0.303903  0.733231  0.621606  0  .  1
   O  O62  1  0.740716  0.295334  0.621503  0  .  1
   O  O63  1  0.267385  0.268776  0.782511  0  .  1
   O  O64  1  0.292554  0.708409  0.707005  0  .  1
   O  O65  1  0.734269  0.737185  0.548561  0  .  1
   O  O66  1  0.708791  0.259387  0.712073  0  .  1
   O  O67  1  0.740716  0.734936  0.621503  0  .  1
   O  O68  1  0.259751  0.268614  0.877701  0  .  1
   O  O69  1  0.285700  0.742016  0.788378  0  .  1
   O  O70  1  0.259751  0.705428  0.877701  0  .  1
   O  O71  1  0.712010  0.288752  0.792722  0  .  1
   O  O72  1  0.730560  0.733870  0.716950  0  .  1
   O  O73  1  0.255904  0.264903  0.952381  0  .  1
   O  O74  1  0.695941  0.268130  0.877966  0  .  1
   O  O75  1  0.712010  0.742901  0.792722  0  .  1
   O  O76  1  0.297001  0.734867  0.955544  0  .  1
   O  O77  1  0.746603  0.290300  0.954713  0  .  1
   O  O78  1  0.741748  0.735605  0.881174  0  .  1
   O  O79  1  0.746603  0.734818  0.954713  0  .  1
 
