#\#CIF1.1
##########################################################################
#               Crystallographic Information Format file 
#               Produced by PyCifRW module
# 
#  This is a CIF file.  CIF has been adopted by the International
#  Union of Crystallography as the standard for data archiving and 
#  transmission.
#
#  For information on this file format, follow the CIF links at
#  http://www.iucr.org
##########################################################################

data_Li9Ni23O32
_symmetry_space_group_name_H-M          'P 1'
_cell_length_a                          5.864608638
_cell_length_b                          5.88391972625
_cell_length_c                          23.5503307482
_cell_angle_alpha                       59.7922700054
_cell_angle_beta                        60.062260174
_cell_angle_gamma                       60.2096402288
_chemical_name_systematic               'Generated by pymatgen'
_symmetry_Int_Tables_number             1
_chemical_formula_structural            Li9Ni23O32
_chemical_formula_sum                   'Li9 Ni23 O32'
_cell_volume                            574.892303596
_cell_formula_units_Z                   1
loop_
  _symmetry_equiv_pos_site_id
  _symmetry_equiv_pos_as_xyz
   1  'x, y, z'
 
loop_
  _atom_site_type_symbol
  _atom_site_label
  _atom_site_symmetry_multiplicity
  _atom_site_fract_x
  _atom_site_fract_y
  _atom_site_fract_z
  _atom_site_attached_hydrogens
  _atom_site_B_iso_or_equiv
  _atom_site_occupancy
   Li  Li1  1  0.401218  0.409705  0.218767  0  .  1
   Li  Li2  1  0.393497  0.889222  0.100534  0  .  1
   Li  Li3  1  0.890381  0.391051  0.102509  0  .  1
   Li  Li4  1  0.393885  0.399082  0.346969  0  .  1
   Li  Li5  1  0.386356  0.389877  0.477776  0  .  1
   Li  Li6  1  0.397064  0.391501  0.598671  0  .  1
   Li  Li7  1  0.900143  0.401401  0.595363  0  .  1
   Li  Li8  1  0.397404  0.395519  0.848141  0  .  1
   Li  Li9  1  0.887950  0.396092  0.848572  0  .  1
   Ni  Ni10  1  0.392759  0.392019  0.100261  0  .  1
   Ni  Ni11  1  0.397783  0.888074  0.223306  0  .  1
   Ni  Ni12  1  0.396866  0.893790  0.348683  0  .  1
   Ni  Ni13  1  0.891747  0.395289  0.223303  0  .  1
   Ni  Ni14  1  0.893758  0.892121  0.099163  0  .  1
   Ni  Ni15  1  0.898027  0.395633  0.348045  0  .  1
   Ni  Ni16  1  0.902528  0.895495  0.221667  0  .  1
   Ni  Ni17  1  0.392031  0.900241  0.473797  0  .  1
   Ni  Ni18  1  0.394677  0.396091  0.723293  0  .  1
   Ni  Ni19  1  0.395039  0.900565  0.597372  0  .  1
   Ni  Ni20  1  0.892550  0.395454  0.475776  0  .  1
   Ni  Ni21  1  0.899315  0.890492  0.348738  0  .  1
   Ni  Ni22  1  0.891587  0.898640  0.473843  0  .  1
   Ni  Ni23  1  0.393656  0.895233  0.723774  0  .  1
   Ni  Ni24  1  0.393067  0.386579  0.974249  0  .  1
   Ni  Ni25  1  0.393463  0.895923  0.848297  0  .  1
   Ni  Ni26  1  0.894773  0.396248  0.723107  0  .  1
   Ni  Ni27  1  0.893049  0.895392  0.598112  0  .  1
   Ni  Ni28  1  0.895185  0.895694  0.723233  0  .  1
   Ni  Ni29  1  0.394427  0.892821  0.973711  0  .  1
   Ni  Ni30  1  0.897391  0.392782  0.972442  0  .  1
   Ni  Ni31  1  0.893535  0.899217  0.848743  0  .  1
   Ni  Ni32  1  0.890013  0.890162  0.975793  0  .  1
   O  O33  1  0.149024  0.134255  0.032290  0  .  1
   O  O34  1  0.148991  0.637141  0.035907  0  .  1
   O  O35  1  0.146867  0.144431  0.163879  0  .  1
   O  O36  1  0.136519  0.641843  0.160532  0  .  1
   O  O37  1  0.133784  0.126755  0.290264  0  .  1
   O  O38  1  0.644380  0.150469  0.035700  0  .  1
   O  O39  1  0.625257  0.654272  0.031048  0  .  1
   O  O40  1  0.643830  0.137147  0.161335  0  .  1
   O  O41  1  0.141528  0.645418  0.284921  0  .  1
   O  O42  1  0.135977  0.140444  0.412340  0  .  1
   O  O43  1  0.126392  0.663623  0.407962  0  .  1
   O  O44  1  0.139927  0.138464  0.537258  0  .  1
   O  O45  1  0.650583  0.650561  0.162481  0  .  1
   O  O46  1  0.669053  0.119191  0.290501  0  .  1
   O  O47  1  0.652128  0.648590  0.286000  0  .  1
   O  O48  1  0.666183  0.130973  0.414648  0  .  1
   O  O49  1  0.125988  0.676681  0.529516  0  .  1
   O  O50  1  0.159381  0.126895  0.665543  0  .  1
   O  O51  1  0.144751  0.646566  0.661074  0  .  1
   O  O52  1  0.141122  0.152455  0.786623  0  .  1
   O  O53  1  0.661772  0.658008  0.407359  0  .  1
   O  O54  1  0.650749  0.141155  0.535957  0  .  1
   O  O55  1  0.647415  0.662850  0.532143  0  .  1
   O  O56  1  0.627902  0.124730  0.666601  0  .  1
   O  O57  1  0.156283  0.665486  0.782061  0  .  1
   O  O58  1  0.161147  0.115848  0.917256  0  .  1
   O  O59  1  0.139724  0.650492  0.912542  0  .  1
   O  O60  1  0.644395  0.640061  0.661245  0  .  1
   O  O61  1  0.647288  0.143471  0.785511  0  .  1
   O  O62  1  0.629882  0.664646  0.781520  0  .  1
   O  O63  1  0.647329  0.134317  0.914287  0  .  1
   O  O64  1  0.636795  0.652824  0.912056  0  .  1
 
