#\#CIF1.1
##########################################################################
#               Crystallographic Information Format file 
#               Produced by PyCifRW module
# 
#  This is a CIF file.  CIF has been adopted by the International
#  Union of Crystallography as the standard for data archiving and 
#  transmission.
#
#  For information on this file format, follow the CIF links at
#  http://www.iucr.org
##########################################################################

data_Li9V19O48
_symmetry_space_group_name_H-M          'P 1'
_cell_length_a                          5.08133865109
_cell_length_b                          10.2997260805
_cell_length_c                          17.2384149558
_cell_angle_alpha                       89.9606715498
_cell_angle_beta                        89.3663092776
_cell_angle_gamma                       89.912739883
_chemical_name_systematic               'Generated by pymatgen'
_symmetry_Int_Tables_number             1
_chemical_formula_structural            Li9V19O48
_chemical_formula_sum                   'Li9 V19 O48'
_cell_volume                            902.140087698
_cell_formula_units_Z                   1
loop_
  _symmetry_equiv_pos_site_id
  _symmetry_equiv_pos_as_xyz
   1  'x, y, z'
 
loop_
  _atom_site_type_symbol
  _atom_site_label
  _atom_site_symmetry_multiplicity
  _atom_site_fract_x
  _atom_site_fract_y
  _atom_site_fract_z
  _atom_site_attached_hydrogens
  _atom_site_B_iso_or_equiv
  _atom_site_occupancy
   Li  Li1  1  0.094826  0.250156  0.251006  0  .  1
   Li  Li2  1  0.253022  0.417497  0.969313  0  .  1
   Li  Li3  1  0.251207  0.581977  0.472544  0  .  1
   Li  Li4  1  0.252582  0.918303  0.472810  0  .  1
   Li  Li5  1  0.239839  0.257557  0.802262  0  .  1
   Li  Li6  1  0.758093  0.753953  0.192549  0  .  1
   Li  Li7  1  0.750755  0.918459  0.028562  0  .  1
   Li  Li8  1  0.743886  0.252176  0.703377  0  .  1
   Li  Li9  1  0.906052  0.750674  0.749005  0  .  1
   V  V10  1  0.408651  0.747379  0.750468  0  .  1
   V  V11  1  0.594297  0.247476  0.248384  0  .  1
   V  V12  1  0.244520  0.751040  0.299529  0  .  1
   V  V13  1  0.229770  0.749806  0.944067  0  .  1
   V  V14  1  0.223451  0.029675  0.656751  0  .  1
   V  V15  1  0.221695  0.470779  0.655031  0  .  1
   V  V16  1  0.237817  0.071432  0.973661  0  .  1
   V  V17  1  0.289290  0.526632  0.154440  0  .  1
   V  V18  1  0.288588  0.972623  0.157158  0  .  1
   V  V19  1  0.285986  0.250293  0.443681  0  .  1
   V  V20  1  0.713905  0.750370  0.557467  0  .  1
   V  V21  1  0.713547  0.471563  0.842090  0  .  1
   V  V22  1  0.715864  0.024954  0.845276  0  .  1
   V  V23  1  0.759324  0.068818  0.528908  0  .  1
   V  V24  1  0.757463  0.431234  0.528447  0  .  1
   V  V25  1  0.765816  0.570475  0.023023  0  .  1
   V  V26  1  0.772555  0.529200  0.342759  0  .  1
   V  V27  1  0.776131  0.970828  0.344139  0  .  1
   V  V28  1  0.769360  0.248893  0.056142  0  .  1
   O  O29  1  0.058993  0.236705  0.996697  0  .  1
   O  O30  1  0.056825  0.615854  0.365476  0  .  1
   O  O31  1  0.057261  0.881895  0.368378  0  .  1
   O  O32  1  0.109026  0.630636  0.212552  0  .  1
   O  O33  1  0.091912  0.874387  0.216313  0  .  1
   O  O34  1  0.086105  0.119182  0.465359  0  .  1
   O  O35  1  0.083961  0.381133  0.464881  0  .  1
   O  O36  1  0.101936  0.008063  0.072581  0  .  1
   O  O37  1  0.075671  0.498133  0.078029  0  .  1
   O  O38  1  0.175508  0.747271  0.843205  0  .  1
   O  O39  1  0.176671  0.619637  0.703867  0  .  1
   O  O40  1  0.179049  0.880364  0.705119  0  .  1
   O  O41  1  0.369580  0.121084  0.207441  0  .  1
   O  O42  1  0.364147  0.382903  0.203911  0  .  1
   O  O43  1  0.366534  0.251506  0.344899  0  .  1
   O  O44  1  0.428643  0.495792  0.574506  0  .  1
   O  O45  1  0.432637  0.005847  0.576721  0  .  1
   O  O46  1  0.399847  0.890107  0.966340  0  .  1
   O  O47  1  0.440865  0.623816  0.966814  0  .  1
   O  O48  1  0.394659  0.126075  0.714155  0  .  1
   O  O49  1  0.403776  0.373968  0.708913  0  .  1
   O  O50  1  0.418326  0.107761  0.883210  0  .  1
   O  O51  1  0.447973  0.384637  0.869462  0  .  1
   O  O52  1  0.452193  0.750468  0.497858  0  .  1
   O  O53  1  0.578592  0.250605  0.506885  0  .  1
   O  O54  1  0.580917  0.607253  0.118321  0  .  1
   O  O55  1  0.558650  0.888966  0.131187  0  .  1
   O  O56  1  0.562971  0.627282  0.290817  0  .  1
   O  O57  1  0.558192  0.874462  0.295114  0  .  1
   O  O58  1  0.560284  0.123189  0.034008  0  .  1
   O  O59  1  0.599127  0.389766  0.034551  0  .  1
   O  O60  1  0.611189  0.014388  0.431031  0  .  1
   O  O61  1  0.608892  0.487860  0.429772  0  .  1
   O  O62  1  0.628551  0.751994  0.657139  0  .  1
   O  O63  1  0.630229  0.621082  0.793454  0  .  1
   O  O64  1  0.636446  0.880799  0.796688  0  .  1
   O  O65  1  0.826988  0.117276  0.292647  0  .  1
   O  O66  1  0.820465  0.382124  0.291171  0  .  1
   O  O67  1  0.824797  0.246375  0.157308  0  .  1
   O  O68  1  0.902477  0.508514  0.930190  0  .  1
   O  O69  1  0.924577  0.996572  0.924681  0  .  1
   O  O70  1  0.903727  0.608549  0.536846  0  .  1
   O  O71  1  0.904876  0.891669  0.536746  0  .  1
   O  O72  1  0.890456  0.120561  0.786446  0  .  1
   O  O73  1  0.911569  0.381854  0.784105  0  .  1
   O  O74  1  0.923379  0.112296  0.618993  0  .  1
   O  O75  1  0.920680  0.387073  0.617807  0  .  1
   O  O76  1  0.941575  0.738047  0.004554  0  .  1
 
