#\#CIF1.1
##########################################################################
#               Crystallographic Information Format file 
#               Produced by PyCifRW module
# 
#  This is a CIF file.  CIF has been adopted by the International
#  Union of Crystallography as the standard for data archiving and 
#  transmission.
#
#  For information on this file format, follow the CIF links at
#  http://www.iucr.org
##########################################################################

data_LiCo7O8
_symmetry_space_group_name_H-M          'P 1'
_cell_length_a                          6.01351011132
_cell_length_b                          6.01618208823
_cell_length_c                          6.01482182948
_cell_angle_alpha                       59.9186685654
_cell_angle_beta                        59.9388561778
_cell_angle_gamma                       59.9453513816
_chemical_name_systematic               'Generated by pymatgen'
_symmetry_Int_Tables_number             1
_chemical_formula_structural            LiCo7O8
_chemical_formula_sum                   'Li1 Co7 O8'
_cell_volume                            153.641659739
_cell_formula_units_Z                   1
loop_
  _symmetry_equiv_pos_site_id
  _symmetry_equiv_pos_as_xyz
   1  'x, y, z'
 
loop_
  _atom_site_type_symbol
  _atom_site_label
  _atom_site_symmetry_multiplicity
  _atom_site_fract_x
  _atom_site_fract_y
  _atom_site_fract_z
  _atom_site_attached_hydrogens
  _atom_site_B_iso_or_equiv
  _atom_site_occupancy
   Li  Li1  1  0.000000  0.000000  1.000000  0  .  1
   Co  Co2  1  -0.000000  0.000000  0.500000  0  .  1
   Co  Co3  1  1.000000  0.500000  1.000000  0  .  1
   Co  Co4  1  0.000000  0.500000  0.500000  0  .  1
   Co  Co5  1  0.500000  0.500000  1.000000  0  .  1
   Co  Co6  1  0.500000  0.500000  0.500000  0  .  1
   Co  Co7  1  0.500000  0.000000  0.000000  0  .  1
   Co  Co8  1  0.500000  0.000000  0.500000  0  .  1
   O  O9  1  0.250283  0.249851  0.249908  0  .  1
   O  O10  1  0.252297  0.252696  0.747087  0  .  1
   O  O11  1  0.252082  0.747878  0.252570  0  .  1
   O  O12  1  0.748068  0.251803  0.252173  0  .  1
   O  O13  1  0.251932  0.748197  0.747827  0  .  1
   O  O14  1  0.747703  0.747304  0.252913  0  .  1
   O  O15  1  0.747919  0.252122  0.747430  0  .  1
   O  O16  1  0.749717  0.750149  0.750092  0  .  1
 
