#\#CIF1.1
##########################################################################
#               Crystallographic Information Format file 
#               Produced by PyCifRW module
# 
#  This is a CIF file.  CIF has been adopted by the International
#  Union of Crystallography as the standard for data archiving and 
#  transmission.
#
#  For information on this file format, follow the CIF links at
#  http://www.iucr.org
##########################################################################

data_LiCr6O11
_symmetry_space_group_name_H-M          'P 1'
_cell_length_a                          5.82113935707
_cell_length_b                          5.82114303149
_cell_length_c                          12.9374072445
_cell_angle_alpha                       89.8657719057
_cell_angle_beta                        89.8323348865
_cell_angle_gamma                       120.169203609
_chemical_name_systematic               'Generated by pymatgen'
_symmetry_Int_Tables_number             1
_chemical_formula_structural            LiCr6O11
_chemical_formula_sum                   'Li2 Cr12 O22'
_cell_volume                            379.005105252
_cell_formula_units_Z                   2
loop_
  _symmetry_equiv_pos_site_id
  _symmetry_equiv_pos_as_xyz
   1  'x, y, z'
 
loop_
  _atom_site_type_symbol
  _atom_site_label
  _atom_site_symmetry_multiplicity
  _atom_site_fract_x
  _atom_site_fract_y
  _atom_site_fract_z
  _atom_site_attached_hydrogens
  _atom_site_B_iso_or_equiv
  _atom_site_occupancy
   Li  Li1  1  0.333365  0.666695  0.259354  0  .  1
   Li  Li2  1  0.665660  0.331722  0.759712  0  .  1
   Cr  Cr3  1  0.999535  0.499757  0.999350  0  .  1
   Cr  Cr4  1  0.333353  0.666463  0.749371  0  .  1
   Cr  Cr5  1  0.001753  0.000596  0.144823  0  .  1
   Cr  Cr6  1  0.999420  0.998431  0.353881  0  .  1
   Cr  Cr7  1  0.000724  0.001920  0.644901  0  .  1
   Cr  Cr8  1  0.998228  0.999421  0.853949  0  .  1
   Cr  Cr9  1  0.499770  -0.000221  0.999661  0  .  1
   Cr  Cr10  1  0.499785  0.499941  0.999531  0  .  1
   Cr  Cr11  1  0.499892  0.499774  0.499648  0  .  1
   Cr  Cr12  1  0.666649  0.333738  0.249208  0  .  1
   Cr  Cr13  1  0.499772  0.999505  0.499300  0  .  1
   Cr  Cr14  1  -0.000156  0.499742  0.499690  0  .  1
   O  O15  1  0.152879  0.846515  0.749223  0  .  1
   O  O16  1  0.168487  0.817407  0.420211  0  .  1
   O  O17  1  0.182074  0.832250  0.077726  0  .  1
   O  O18  1  0.331637  0.663680  0.586852  0  .  1
   O  O19  1  0.335784  0.668389  0.912023  0  .  1
   O  O20  1  0.177962  0.355668  0.418522  0  .  1
   O  O21  1  0.152931  0.305666  0.749941  0  .  1
   O  O22  1  0.180763  0.345609  0.075323  0  .  1
   O  O23  1  0.305904  0.153304  0.249751  0  .  1
   O  O24  1  0.648626  0.824884  0.078150  0  .  1
   O  O25  1  0.649337  0.817276  0.420617  0  .  1
   O  O26  1  0.355295  0.177036  0.918590  0  .  1
   O  O27  1  0.347675  0.181664  0.576392  0  .  1
   O  O28  1  0.694060  0.846741  0.748824  0  .  1
   O  O29  1  0.818160  0.651272  0.921669  0  .  1
   O  O30  1  0.663884  0.331400  0.086853  0  .  1
   O  O31  1  0.668245  0.336053  0.411997  0  .  1
   O  O32  1  0.847127  0.694410  0.248633  0  .  1
   O  O33  1  0.824081  0.648428  0.578247  0  .  1
   O  O34  1  0.833463  0.181561  0.576804  0  .  1
   O  O35  1  0.816779  0.169767  0.919279  0  .  1
   O  O36  1  0.847107  0.153575  0.249311  0  .  1
 
