#\#CIF1.1
##########################################################################
#               Crystallographic Information Format file 
#               Produced by PyCifRW module
# 
#  This is a CIF file.  CIF has been adopted by the International
#  Union of Crystallography as the standard for data archiving and 
#  transmission.
#
#  For information on this file format, follow the CIF links at
#  http://www.iucr.org
##########################################################################

data_LiCr3O9
_symmetry_space_group_name_H-M          'P 1'
_cell_length_a                          10.4610431531
_cell_length_b                          12.9247066996
_cell_length_c                          12.9247066996
_cell_angle_alpha                       111.783511686
_cell_angle_beta                        70.3488446823
_cell_angle_gamma                       70.3488446823
_chemical_name_systematic               'Generated by pymatgen'
_symmetry_Int_Tables_number             1
_chemical_formula_structural            LiCr3O9
_chemical_formula_sum                   'Li6 Cr18 O54'
_cell_volume                            1298.52237353
_cell_formula_units_Z                   6
loop_
  _symmetry_equiv_pos_site_id
  _symmetry_equiv_pos_as_xyz
   1  'x, y, z'
 
loop_
  _atom_site_type_symbol
  _atom_site_label
  _atom_site_symmetry_multiplicity
  _atom_site_fract_x
  _atom_site_fract_y
  _atom_site_fract_z
  _atom_site_attached_hydrogens
  _atom_site_B_iso_or_equiv
  _atom_site_occupancy
   Li  Li1  1  0.496893  0.330393  0.176165  0  .  1
   Li  Li2  1  0.996893  0.176165  0.330393  0  .  1
   Li  Li3  1  0.996098  0.841796  0.664262  0  .  1
   Li  Li4  1  0.532550  0.987099  0.474371  0  .  1
   Li  Li5  1  0.496098  0.664262  0.841796  0  .  1
   Li  Li6  1  0.032550  0.474371  0.987099  0  .  1
   Cr  Cr7  1  0.811332  0.092967  0.158778  0  .  1
   Cr  Cr8  1  0.311332  0.158778  0.092967  0  .  1
   Cr  Cr9  1  0.704720  0.172023  0.567840  0  .  1
   Cr  Cr10  1  0.695780  0.509284  0.236640  0  .  1
   Cr  Cr11  1  0.204720  0.567840  0.172023  0  .  1
   Cr  Cr12  1  0.195780  0.236640  0.509284  0  .  1
   Cr  Cr13  1  0.796028  0.828943  0.118162  0  .  1
   Cr  Cr14  1  0.741724  0.188564  0.818949  0  .  1
   Cr  Cr15  1  0.721072  0.537247  0.500520  0  .  1
   Cr  Cr16  1  0.296028  0.118162  0.828943  0  .  1
   Cr  Cr17  1  0.241724  0.818949  0.188564  0  .  1
   Cr  Cr18  1  0.847734  0.732424  0.463578  0  .  1
   Cr  Cr19  1  0.221072  0.500520  0.537247  0  .  1
   Cr  Cr20  1  0.847944  0.402258  0.805416  0  .  1
   Cr  Cr21  1  0.347734  0.463578  0.732424  0  .  1
   Cr  Cr22  1  0.347944  0.805416  0.402258  0  .  1
   Cr  Cr23  1  0.659122  0.867210  0.926313  0  .  1
   Cr  Cr24  1  0.159122  0.926313  0.867210  0  .  1
   O  O25  1  0.981513  0.048926  0.009674  0  .  1
   O  O26  1  0.481513  0.009674  0.048926  0  .  1
   O  O27  1  0.647245  0.160260  0.160986  0  .  1
   O  O28  1  0.816415  0.174025  0.286541  0  .  1
   O  O29  1  0.147245  0.160986  0.160260  0  .  1
   O  O30  1  0.698240  0.048664  0.479143  0  .  1
   O  O31  1  0.316415  0.286541  0.174025  0  .  1
   O  O32  1  0.675569  0.387840  0.165437  0  .  1
   O  O33  1  0.861948  0.499655  0.158028  0  .  1
   O  O34  1  0.866202  0.173841  0.503145  0  .  1
   O  O35  1  0.198240  0.479143  0.048664  0  .  1
   O  O36  1  0.925256  0.689861  0.081564  0  .  1
   O  O37  1  0.175569  0.165437  0.387840  0  .  1
   O  O38  1  0.906885  0.047634  0.731543  0  .  1
   O  O39  1  0.863432  0.388842  0.431980  0  .  1
   O  O40  1  0.361948  0.158028  0.499655  0  .  1
   O  O41  1  0.366202  0.503145  0.173841  0  .  1
   O  O42  1  0.741507  0.797526  0.999868  0  .  1
   O  O43  1  0.425256  0.081564  0.689861  0  .  1
   O  O44  1  0.406885  0.731543  0.047634  0  .  1
   O  O45  1  0.363432  0.431980  0.388842  0  .  1
   O  O46  1  0.241507  0.999868  0.797526  0  .  1
   O  O47  1  0.648954  0.200186  0.733532  0  .  1
   O  O48  1  0.645047  0.549639  0.404987  0  .  1
   O  O49  1  0.882278  0.919132  0.109314  0  .  1
   O  O50  1  0.532227  0.325078  0.621865  0  .  1
   O  O51  1  0.527380  0.662685  0.286465  0  .  1
   O  O52  1  0.148954  0.733532  0.200186  0  .  1
   O  O53  1  0.145047  0.404987  0.549639  0  .  1
   O  O54  1  0.382278  0.109314  0.919132  0  .  1
   O  O55  1  0.032227  0.621865  0.325078  0  .  1
   O  O56  1  0.027380  0.286465  0.662685  0  .  1
   O  O57  1  0.792934  0.643552  0.527051  0  .  1
   O  O58  1  0.776483  0.318107  0.864910  0  .  1
   O  O59  1  0.623236  0.209542  0.952751  0  .  1
   O  O60  1  0.640846  0.907446  0.262875  0  .  1
   O  O61  1  0.720372  0.800072  0.430371  0  .  1
   O  O62  1  0.722073  0.489196  0.782355  0  .  1
   O  O63  1  0.292934  0.527051  0.643552  0  .  1
   O  O64  1  0.578933  0.587199  0.641151  0  .  1
   O  O65  1  0.276483  0.864910  0.318107  0  .  1
   O  O66  1  0.123236  0.952751  0.209542  0  .  1
   O  O67  1  0.140846  0.262875  0.907446  0  .  1
   O  O68  1  0.220372  0.430371  0.800072  0  .  1
   O  O69  1  0.873793  0.493608  0.911457  0  .  1
   O  O70  1  0.855537  0.841672  0.569562  0  .  1
   O  O71  1  0.222073  0.782355  0.489196  0  .  1
   O  O72  1  0.078933  0.641151  0.587199  0  .  1
   O  O73  1  0.373793  0.911457  0.493608  0  .  1
   O  O74  1  0.355537  0.569562  0.841672  0  .  1
   O  O75  1  0.628380  0.766284  0.834896  0  .  1
   O  O76  1  0.780696  0.894476  0.840922  0  .  1
   O  O77  1  0.128380  0.834896  0.766284  0  .  1
   O  O78  1  0.280696  0.840922  0.894476  0  .  1
 
