#\#CIF1.1
##########################################################################
#               Crystallographic Information Format file 
#               Produced by PyCifRW module
# 
#  This is a CIF file.  CIF has been adopted by the International
#  Union of Crystallography as the standard for data archiving and 
#  transmission.
#
#  For information on this file format, follow the CIF links at
#  http://www.iucr.org
##########################################################################

data_LiCr2O3
_symmetry_space_group_name_H-M          'P 1'
_cell_length_a                          5.21283923122
_cell_length_b                          5.21283923122
_cell_length_c                          5.27678867089
_cell_angle_alpha                       79.5932513877
_cell_angle_beta                        100.406748612
_cell_angle_gamma                       60.9265104468
_chemical_name_systematic               'Generated by pymatgen'
_symmetry_Int_Tables_number             1
_chemical_formula_structural            LiCr2O3
_chemical_formula_sum                   'Li2 Cr4 O6'
_cell_volume                            117.097983783
_cell_formula_units_Z                   2
loop_
  _symmetry_equiv_pos_site_id
  _symmetry_equiv_pos_as_xyz
   1  'x, y, z'
 
loop_
  _atom_site_type_symbol
  _atom_site_label
  _atom_site_symmetry_multiplicity
  _atom_site_fract_x
  _atom_site_fract_y
  _atom_site_fract_z
  _atom_site_attached_hydrogens
  _atom_site_B_iso_or_equiv
  _atom_site_occupancy
   Li  Li1  1  0.914712  0.914712  0.750000  0  .  1
   Li  Li2  1  0.085288  0.085288  0.250000  0  .  1
   Cr  Cr3  1  0.246020  0.246020  0.750000  0  .  1
   Cr  Cr4  1  0.585981  0.585981  0.750000  0  .  1
   Cr  Cr5  1  0.414019  0.414019  0.250000  0  .  1
   Cr  Cr6  1  0.753980  0.753980  0.250000  0  .  1
   O  O7  1  0.177378  0.641784  0.490687  0  .  1
   O  O8  1  0.358216  0.822622  0.990687  0  .  1
   O  O9  1  0.000000  0.500000  0.000000  0  .  1
   O  O10  1  0.641784  0.177378  0.009313  0  .  1
   O  O11  1  0.500000  0.000000  0.500000  0  .  1
   O  O12  1  0.822622  0.358216  0.509313  0  .  1
 
