#\#CIF1.1
##########################################################################
#               Crystallographic Information Format file 
#               Produced by PyCifRW module
# 
#  This is a CIF file.  CIF has been adopted by the International
#  Union of Crystallography as the standard for data archiving and 
#  transmission.
#
#  For information on this file format, follow the CIF links at
#  http://www.iucr.org
##########################################################################

data_LiCuS
_symmetry_space_group_name_H-M          'P 1'
_cell_length_a                          12.76607702
_cell_length_b                          4.91037974
_cell_length_c                          21.81818969
_cell_angle_alpha                       90.0
_cell_angle_beta                        90.0
_cell_angle_gamma                       90.0
_chemical_name_systematic               'Generated by pymatgen'
_symmetry_Int_Tables_number             1
_chemical_formula_structural            LiCuS
_chemical_formula_sum                   'Li24 Cu24 S24'
_cell_volume                            1367.701278
_cell_formula_units_Z                   24
loop_
  _symmetry_equiv_pos_site_id
  _symmetry_equiv_pos_as_xyz
   1  'x, y, z'
 
loop_
  _atom_site_type_symbol
  _atom_site_label
  _atom_site_symmetry_multiplicity
  _atom_site_fract_x
  _atom_site_fract_y
  _atom_site_fract_z
  _atom_site_attached_hydrogens
  _atom_site_B_iso_or_equiv
  _atom_site_occupancy
   Li  Li1  1  0.088941  0.115875  0.863822  0  .  1
   Li  Li2  1  0.088941  0.884125  0.363822  0  .  1
   Li  Li3  1  0.075528  0.469314  0.198407  0  .  1
   Li  Li4  1  0.075528  0.530686  0.698407  0  .  1
   Li  Li5  1  0.081192  0.167689  0.537501  0  .  1
   Li  Li6  1  0.081192  0.832311  0.037501  0  .  1
   Li  Li7  1  0.418808  0.332311  0.037501  0  .  1
   Li  Li8  1  0.418808  0.667689  0.537501  0  .  1
   Li  Li9  1  0.424472  0.969314  0.198407  0  .  1
   Li  Li10  1  0.424472  0.030686  0.698407  0  .  1
   Li  Li11  1  0.411059  0.384125  0.363822  0  .  1
   Li  Li12  1  0.411059  0.615875  0.863822  0  .  1
   Li  Li13  1  0.588941  0.615875  0.636178  0  .  1
   Li  Li14  1  0.588941  0.384125  0.136178  0  .  1
   Li  Li15  1  0.575528  0.030686  0.801593  0  .  1
   Li  Li16  1  0.575528  0.969314  0.301593  0  .  1
   Li  Li17  1  0.581192  0.332311  0.462499  0  .  1
   Li  Li18  1  0.581192  0.667689  0.962499  0  .  1
   Li  Li19  1  0.918808  0.832311  0.462499  0  .  1
   Li  Li20  1  0.918808  0.167689  0.962499  0  .  1
   Li  Li21  1  0.924472  0.469314  0.301593  0  .  1
   Li  Li22  1  0.924472  0.530686  0.801593  0  .  1
   Li  Li23  1  0.911059  0.115875  0.636178  0  .  1
   Li  Li24  1  0.911059  0.884125  0.136178  0  .  1
   Cu  Cu25  1  0.247201  0.192901  0.146109  0  .  1
   Cu  Cu26  1  0.247201  0.807099  0.646109  0  .  1
   Cu  Cu27  1  0.247712  0.828936  0.793201  0  .  1
   Cu  Cu28  1  0.247712  0.171064  0.293201  0  .  1
   Cu  Cu29  1  0.244735  0.486961  0.470559  0  .  1
   Cu  Cu30  1  0.244735  0.513039  0.970559  0  .  1
   Cu  Cu31  1  0.255264  0.986961  0.470559  0  .  1
   Cu  Cu32  1  0.255264  0.013039  0.970559  0  .  1
   Cu  Cu33  1  0.252288  0.671064  0.293201  0  .  1
   Cu  Cu34  1  0.252288  0.328936  0.793201  0  .  1
   Cu  Cu35  1  0.252799  0.692901  0.146109  0  .  1
   Cu  Cu36  1  0.252799  0.307099  0.646109  0  .  1
   Cu  Cu37  1  0.747201  0.692901  0.353891  0  .  1
   Cu  Cu38  1  0.747201  0.307099  0.853891  0  .  1
   Cu  Cu39  1  0.747712  0.328936  0.706799  0  .  1
   Cu  Cu40  1  0.747712  0.671064  0.206799  0  .  1
   Cu  Cu41  1  0.744736  0.986961  0.029441  0  .  1
   Cu  Cu42  1  0.744736  0.013039  0.529441  0  .  1
   Cu  Cu43  1  0.755264  0.513039  0.529441  0  .  1
   Cu  Cu44  1  0.755264  0.486961  0.029441  0  .  1
   Cu  Cu45  1  0.752288  0.828936  0.706799  0  .  1
   Cu  Cu46  1  0.752288  0.171064  0.206799  0  .  1
   Cu  Cu47  1  0.752799  0.192901  0.353891  0  .  1
   Cu  Cu48  1  0.752799  0.807099  0.853891  0  .  1
   S  S49  1  0.109740  0.931835  0.146161  0  .  1
   S  S50  1  0.109740  0.068165  0.646161  0  .  1
   S  S51  1  0.112544  0.427605  0.306440  0  .  1
   S  S52  1  0.112544  0.572395  0.806440  0  .  1
   S  S53  1  0.110586  0.244501  0.972783  0  .  1
   S  S54  1  0.110586  0.755499  0.472783  0  .  1
   S  S55  1  0.389414  0.744501  0.972783  0  .  1
   S  S56  1  0.389414  0.255499  0.472783  0  .  1
   S  S57  1  0.387456  0.927605  0.306440  0  .  1
   S  S58  1  0.387456  0.072395  0.806440  0  .  1
   S  S59  1  0.390260  0.431835  0.146161  0  .  1
   S  S60  1  0.390260  0.568165  0.646161  0  .  1
   S  S61  1  0.609740  0.568165  0.853839  0  .  1
   S  S62  1  0.609740  0.431835  0.353839  0  .  1
   S  S63  1  0.612544  0.927605  0.193560  0  .  1
   S  S64  1  0.612544  0.072395  0.693560  0  .  1
   S  S65  1  0.610586  0.255499  0.027217  0  .  1
   S  S66  1  0.610586  0.744501  0.527217  0  .  1
   S  S67  1  0.889414  0.244501  0.527217  0  .  1
   S  S68  1  0.889414  0.755499  0.027217  0  .  1
   S  S69  1  0.887456  0.572395  0.693560  0  .  1
   S  S70  1  0.887456  0.427605  0.193560  0  .  1
   S  S71  1  0.890260  0.931835  0.353839  0  .  1
   S  S72  1  0.890260  0.068165  0.853839  0  .  1
 
