#\#CIF1.1
##########################################################################
#               Crystallographic Information Format file 
#               Produced by PyCifRW module
# 
#  This is a CIF file.  CIF has been adopted by the International
#  Union of Crystallography as the standard for data archiving and 
#  transmission.
#
#  For information on this file format, follow the CIF links at
#  http://www.iucr.org
##########################################################################

data_LiCuO2
_symmetry_space_group_name_H-M          'P 1'
_cell_length_a                          2.96837857027
_cell_length_b                          2.96846564145
_cell_length_c                          5.09045012046
_cell_angle_alpha                       89.9988920103
_cell_angle_beta                        90.0015222464
_cell_angle_gamma                       119.999232593
_chemical_name_systematic               'Generated by pymatgen'
_symmetry_Int_Tables_number             1
_chemical_formula_structural            LiCuO2
_chemical_formula_sum                   'Li1 Cu1 O2'
_cell_volume                            38.8455692707
_cell_formula_units_Z                   1
loop_
  _symmetry_equiv_pos_site_id
  _symmetry_equiv_pos_as_xyz
   1  'x, y, z'
 
loop_
  _atom_site_type_symbol
  _atom_site_label
  _atom_site_symmetry_multiplicity
  _atom_site_fract_x
  _atom_site_fract_y
  _atom_site_fract_z
  _atom_site_attached_hydrogens
  _atom_site_B_iso_or_equiv
  _atom_site_occupancy
   Li  Li1  1  0.666614  0.333332  0.596475  0  .  1
   Cu  Cu2  1  0.999973  0.999993  0.027457  0  .  1
   O  O3  1  0.333279  0.666660  0.799763  0  .  1
   O  O4  1  0.666633  0.333315  0.225305  0  .  1
 
