#\#CIF1.1
##########################################################################
#               Crystallographic Information Format file 
#               Produced by PyCifRW module
# 
#  This is a CIF file.  CIF has been adopted by the International
#  Union of Crystallography as the standard for data archiving and 
#  transmission.
#
#  For information on this file format, follow the CIF links at
#  http://www.iucr.org
##########################################################################

data_LiCuS2
_symmetry_space_group_name_H-M          'P 1'
_cell_length_a                          5.96554314
_cell_length_b                          6.654611
_cell_length_c                          3.37499265
_cell_angle_alpha                       90.0
_cell_angle_beta                        90.0
_cell_angle_gamma                       90.0
_chemical_name_systematic               'Generated by pymatgen'
_symmetry_Int_Tables_number             1
_chemical_formula_structural            LiCuS2
_chemical_formula_sum                   'Li2 Cu2 S4'
_cell_volume                            133.981703593
_cell_formula_units_Z                   2
loop_
  _symmetry_equiv_pos_site_id
  _symmetry_equiv_pos_as_xyz
   1  'x, y, z'
 
loop_
  _atom_site_type_symbol
  _atom_site_label
  _atom_site_symmetry_multiplicity
  _atom_site_fract_x
  _atom_site_fract_y
  _atom_site_fract_z
  _atom_site_attached_hydrogens
  _atom_site_B_iso_or_equiv
  _atom_site_occupancy
   Li  Li1  1  0.000000  0.500000  0.500000  0  .  1
   Li  Li2  1  0.500000  0.000000  0.000000  0  .  1
   Cu  Cu3  1  0.000000  0.000000  0.000000  0  .  1
   Cu  Cu4  1  0.500000  0.500000  0.500000  0  .  1
   S  S5  1  0.184062  0.854059  0.500000  0  .  1
   S  S6  1  0.315938  0.354059  0.000000  0  .  1
   S  S7  1  0.684062  0.645941  0.000000  0  .  1
   S  S8  1  0.815938  0.145941  0.500000  0  .  1
 
