#\#CIF1.1
##########################################################################
#               Crystallographic Information Format file 
#               Produced by PyCifRW module
# 
#  This is a CIF file.  CIF has been adopted by the International
#  Union of Crystallography as the standard for data archiving and 
#  transmission.
#
#  For information on this file format, follow the CIF links at
#  http://www.iucr.org
##########################################################################

data_LiFe2O3
_symmetry_space_group_name_H-M          'P 1'
_cell_length_a                          3.03070364
_cell_length_b                          3.03517413267
_cell_length_c                          7.45017777794
_cell_angle_alpha                       89.5717116464
_cell_angle_beta                        90.0
_cell_angle_gamma                       119.951278082
_chemical_name_systematic               'Generated by pymatgen'
_symmetry_Int_Tables_number             1
_chemical_formula_structural            LiFe2O3
_chemical_formula_sum                   'Li1 Fe2 O3'
_cell_volume                            59.377402864
_cell_formula_units_Z                   1
loop_
  _symmetry_equiv_pos_site_id
  _symmetry_equiv_pos_as_xyz
   1  'x, y, z'
 
loop_
  _atom_site_type_symbol
  _atom_site_label
  _atom_site_symmetry_multiplicity
  _atom_site_fract_x
  _atom_site_fract_y
  _atom_site_fract_z
  _atom_site_attached_hydrogens
  _atom_site_B_iso_or_equiv
  _atom_site_occupancy
   Li  Li1  1  0.998367  0.000000  0.500000  0  .  1
   Fe  Fe2  1  0.328068  0.663096  0.179298  0  .  1
   Fe  Fe3  1  0.664973  0.336904  0.820702  0  .  1
   O  O4  1  0.340254  0.660025  0.679162  0  .  1
   O  O5  1  0.988090  0.000000  0.000000  0  .  1
   O  O6  1  0.680228  0.339975  0.320838  0  .  1
 
