#\#CIF1.1
##########################################################################
#               Crystallographic Information Format file 
#               Produced by PyCifRW module
# 
#  This is a CIF file.  CIF has been adopted by the International
#  Union of Crystallography as the standard for data archiving and 
#  transmission.
#
#  For information on this file format, follow the CIF links at
#  http://www.iucr.org
##########################################################################

data_LiFe3O4
_symmetry_space_group_name_H-M          'P 1'
_cell_length_a                          6.03861351965
_cell_length_b                          3.05541371514
_cell_length_c                          6.03173361485
_cell_angle_alpha                       59.3733376777
_cell_angle_beta                        91.9515820944
_cell_angle_gamma                       120.148890329
_chemical_name_systematic               'Generated by pymatgen'
_symmetry_Int_Tables_number             1
_chemical_formula_structural            LiFe3O4
_chemical_formula_sum                   'Li1 Fe3 O4'
_cell_volume                            79.0446400867
_cell_formula_units_Z                   1
loop_
  _symmetry_equiv_pos_site_id
  _symmetry_equiv_pos_as_xyz
   1  'x, y, z'
 
loop_
  _atom_site_type_symbol
  _atom_site_label
  _atom_site_symmetry_multiplicity
  _atom_site_fract_x
  _atom_site_fract_y
  _atom_site_fract_z
  _atom_site_attached_hydrogens
  _atom_site_B_iso_or_equiv
  _atom_site_occupancy
   Li  Li1  1  0.000068  0.006654  0.500390  0  .  1
   Fe  Fe2  1  0.999854  0.010467  0.000548  0  .  1
   Fe  Fe3  1  0.499850  0.010364  0.000593  0  .  1
   Fe  Fe4  1  0.499920  0.010426  0.500558  0  .  1
   O  O5  1  0.251975  0.009122  0.242948  0  .  1
   O  O6  1  0.774705  0.047844  0.237074  0  .  1
   O  O7  1  0.224990  0.973327  0.764132  0  .  1
   O  O8  1  0.747658  0.010719  0.758354  0  .  1
 
