#\#CIF1.1
##########################################################################
#               Crystallographic Information Format file 
#               Produced by PyCifRW module
# 
#  This is a CIF file.  CIF has been adopted by the International
#  Union of Crystallography as the standard for data archiving and 
#  transmission.
#
#  For information on this file format, follow the CIF links at
#  http://www.iucr.org
##########################################################################

data_LiLa4CuO8
_symmetry_space_group_name_H-M          'P 1'
_cell_length_a                          5.31234475441
_cell_length_b                          5.30500339
_cell_length_c                          7.11242344825
_cell_angle_alpha                       90.0
_cell_angle_beta                        111.928874399
_cell_angle_gamma                       90.0
_chemical_name_systematic               'Generated by pymatgen'
_symmetry_Int_Tables_number             1
_chemical_formula_structural            LiLa4CuO8
_chemical_formula_sum                   'Li1 La4 Cu1 O8'
_cell_volume                            185.939994388
_cell_formula_units_Z                   1
loop_
  _symmetry_equiv_pos_site_id
  _symmetry_equiv_pos_as_xyz
   1  'x, y, z'
 
loop_
  _atom_site_type_symbol
  _atom_site_label
  _atom_site_symmetry_multiplicity
  _atom_site_fract_x
  _atom_site_fract_y
  _atom_site_fract_z
  _atom_site_attached_hydrogens
  _atom_site_B_iso_or_equiv
  _atom_site_occupancy
   Li  Li1  1  0.500000  0.500000  0.000000  0  .  1
   O  O2  1  0.757026  0.755091  0.000000  0  .  1
   O  O3  1  0.186185  0.000000  0.372369  0  .  1
   O  O4  1  0.813815  0.000000  0.627631  0  .  1
   O  O5  1  0.320556  0.500000  0.641113  0  .  1
   O  O6  1  0.679444  0.500000  0.358887  0  .  1
   O  O7  1  0.242974  0.244909  0.000000  0  .  1
   O  O8  1  0.242974  0.755091  0.000000  0  .  1
   O  O9  1  0.757026  0.244909  0.000000  0  .  1
   Cu  Cu10  1  0.000000  0.000000  0.000000  0  .  1
   La  La11  1  0.860582  0.500000  0.721165  0  .  1
   La  La12  1  0.139418  0.500000  0.278835  0  .  1
   La  La13  1  0.362052  0.000000  0.724103  0  .  1
   La  La14  1  0.637948  0.000000  0.275897  0  .  1
 
