#\#CIF1.1
##########################################################################
#               Crystallographic Information Format file 
#               Produced by PyCifRW module
# 
#  This is a CIF file.  CIF has been adopted by the International
#  Union of Crystallography as the standard for data archiving and 
#  transmission.
#
#  For information on this file format, follow the CIF links at
#  http://www.iucr.org
##########################################################################

data_LiLa4CoO8
_symmetry_space_group_name_H-M          'P 1'
_cell_length_a                          5.34316263272
_cell_length_b                          5.33344875021
_cell_length_c                          7.01536221289
_cell_angle_alpha                       112.301526763
_cell_angle_beta                        89.998191825
_cell_angle_gamma                       89.9978539783
_chemical_name_systematic               'Generated by pymatgen'
_symmetry_Int_Tables_number             1
_chemical_formula_structural            LiLa4CoO8
_chemical_formula_sum                   'Li1 La4 Co1 O8'
_cell_volume                            184.966064956
_cell_formula_units_Z                   1
loop_
  _symmetry_equiv_pos_site_id
  _symmetry_equiv_pos_as_xyz
   1  'x, y, z'
 
loop_
  _atom_site_type_symbol
  _atom_site_label
  _atom_site_symmetry_multiplicity
  _atom_site_fract_x
  _atom_site_fract_y
  _atom_site_fract_z
  _atom_site_attached_hydrogens
  _atom_site_B_iso_or_equiv
  _atom_site_occupancy
   Li  Li1  1  0.999999  0.500000  0.000001  0  .  1
   La  La2  1  0.499991  0.361796  0.724706  0  .  1
   La  La3  1  1.000048  0.138244  0.276291  0  .  1
   La  La4  1  -0.000045  0.861758  0.723708  0  .  1
   La  La5  1  0.500008  0.638204  0.275294  0  .  1
   Co  Co6  1  0.500000  0.000000  0.000000  0  .  1
   O  O7  1  0.999992  0.681516  0.363102  0  .  1
   O  O8  1  0.500009  0.820715  0.641170  0  .  1
   O  O9  1  0.744244  0.245761  0.999925  0  .  1
   O  O10  1  0.744136  0.754154  1.000058  0  .  1
   O  O11  1  0.499990  0.179284  0.358830  0  .  1
   O  O12  1  0.000012  0.318481  0.636899  0  .  1
   O  O13  1  0.255755  0.754241  0.000075  0  .  1
   O  O14  1  0.255863  0.245848  -0.000058  0  .  1
 
