#\#CIF1.1
##########################################################################
#               Crystallographic Information Format file 
#               Produced by PyCifRW module
# 
#  This is a CIF file.  CIF has been adopted by the International
#  Union of Crystallography as the standard for data archiving and 
#  transmission.
#
#  For information on this file format, follow the CIF links at
#  http://www.iucr.org
##########################################################################

data_LiMn9Se10
_symmetry_space_group_name_H-M          'P 1'
_cell_length_a                          7.62895326494
_cell_length_b                          19.0465048099
_cell_length_c                          10.0751813598
_cell_angle_alpha                       19.111735767
_cell_angle_beta                        55.3890299416
_cell_angle_gamma                       59.9441851979
_chemical_name_systematic               'Generated by pymatgen'
_symmetry_Int_Tables_number             1
_chemical_formula_structural            LiMn9Se10
_chemical_formula_sum                   'Li1 Mn9 Se10'
_cell_volume                            390.987973073
_cell_formula_units_Z                   1
loop_
  _symmetry_equiv_pos_site_id
  _symmetry_equiv_pos_as_xyz
   1  'x, y, z'
 
loop_
  _atom_site_type_symbol
  _atom_site_label
  _atom_site_symmetry_multiplicity
  _atom_site_fract_x
  _atom_site_fract_y
  _atom_site_fract_z
  _atom_site_attached_hydrogens
  _atom_site_B_iso_or_equiv
  _atom_site_occupancy
   Li  Li1  1  0.500000  0.800000  0.000000  0  .  1
   Mn  Mn2  1  0.000417  0.998890  0.002405  0  .  1
   Mn  Mn3  1  0.998533  0.201900  0.997786  0  .  1
   Mn  Mn4  1  0.001467  0.398100  0.002214  0  .  1
   Mn  Mn5  1  0.499985  0.200688  0.999961  0  .  1
   Mn  Mn6  1  0.999583  0.601110  0.997595  0  .  1
   Mn  Mn7  1  0.500015  0.399312  0.000039  0  .  1
   Mn  Mn8  1  0.000000  0.800000  0.000000  0  .  1
   Mn  Mn9  1  0.500025  0.600815  0.999641  0  .  1
   Mn  Mn10  1  0.499975  0.999185  0.000359  0  .  1
   Se  Se11  1  0.247713  0.102148  0.496635  0  .  1
   Se  Se12  1  0.251060  0.300409  0.498673  0  .  1
   Se  Se13  1  0.751355  0.102107  0.497325  0  .  1
   Se  Se14  1  0.248645  0.497893  0.502675  0  .  1
   Se  Se15  1  0.748940  0.299591  0.501327  0  .  1
   Se  Se16  1  0.248180  0.699101  0.504716  0  .  1
   Se  Se17  1  0.752287  0.497852  0.503365  0  .  1
   Se  Se18  1  0.250615  0.900009  0.499771  0  .  1
   Se  Se19  1  0.749385  0.699991  0.500229  0  .  1
   Se  Se20  1  0.751820  0.900899  0.495284  0  .  1
 
