#\#CIF1.1
##########################################################################
#               Crystallographic Information Format file 
#               Produced by PyCifRW module
# 
#  This is a CIF file.  CIF has been adopted by the International
#  Union of Crystallography as the standard for data archiving and 
#  transmission.
#
#  For information on this file format, follow the CIF links at
#  http://www.iucr.org
##########################################################################

data_LiMn3O4
_symmetry_space_group_name_H-M          'P 1'
_cell_length_a                          6.0717100538
_cell_length_b                          6.0717093855
_cell_length_c                          6.29578118995
_cell_angle_alpha                       119.520491963
_cell_angle_beta                        119.520488192
_cell_angle_gamma                       88.5134796358
_chemical_name_systematic               'Generated by pymatgen'
_symmetry_Int_Tables_number             1
_chemical_formula_structural            LiMn3O4
_chemical_formula_sum                   'Li2 Mn6 O8'
_cell_volume                            168.386917903
_cell_formula_units_Z                   2
loop_
  _symmetry_equiv_pos_site_id
  _symmetry_equiv_pos_as_xyz
   1  'x, y, z'
 
loop_
  _atom_site_type_symbol
  _atom_site_label
  _atom_site_symmetry_multiplicity
  _atom_site_fract_x
  _atom_site_fract_y
  _atom_site_fract_z
  _atom_site_attached_hydrogens
  _atom_site_B_iso_or_equiv
  _atom_site_occupancy
   Li  Li1  1  0.000000  0.500000  0.000000  0  .  1
   Li  Li2  1  0.500000  0.000000  0.500000  0  .  1
   Mn  Mn3  1  0.000000  0.000000  0.000000  0  .  1
   Mn  Mn4  1  0.500000  0.500000  0.000000  0  .  1
   Mn  Mn5  1  0.500000  0.500000  0.500000  0  .  1
   Mn  Mn6  1  0.500000  0.000000  0.000000  0  .  1
   Mn  Mn7  1  0.000000  0.500000  0.500000  0  .  1
   Mn  Mn8  1  0.000000  0.000000  0.500000  0  .  1
   O  O9  1  0.262948  0.761644  0.000378  0  .  1
   O  O10  1  0.245986  0.252647  0.497436  0  .  1
   O  O11  1  0.238356  0.737052  0.499622  0  .  1
   O  O12  1  0.747353  0.754014  0.002564  0  .  1
   O  O13  1  0.252647  0.245986  0.997436  0  .  1
   O  O14  1  0.761644  0.262948  0.500378  0  .  1
   O  O15  1  0.754014  0.747353  0.502564  0  .  1
   O  O16  1  0.737052  0.238356  -0.000378  0  .  1
 
