#\#CIF1.1
##########################################################################
#               Crystallographic Information Format file 
#               Produced by PyCifRW module
# 
#  This is a CIF file.  CIF has been adopted by the International
#  Union of Crystallography as the standard for data archiving and 
#  transmission.
#
#  For information on this file format, follow the CIF links at
#  http://www.iucr.org
##########################################################################

data_LiMn5O8
_symmetry_space_group_name_H-M          'P 1'
_cell_length_a                          8.52326150962
_cell_length_b                          8.52187131206
_cell_length_c                          8.52508384756
_cell_angle_alpha                       89.9998345832
_cell_angle_beta                        89.9951763342
_cell_angle_gamma                       89.9974814223
_chemical_name_systematic               'Generated by pymatgen'
_symmetry_Int_Tables_number             1
_chemical_formula_structural            LiMn5O8
_chemical_formula_sum                   'Li4 Mn20 O32'
_cell_volume                            619.212111668
_cell_formula_units_Z                   4
loop_
  _symmetry_equiv_pos_site_id
  _symmetry_equiv_pos_as_xyz
   1  'x, y, z'
 
loop_
  _atom_site_type_symbol
  _atom_site_label
  _atom_site_symmetry_multiplicity
  _atom_site_fract_x
  _atom_site_fract_y
  _atom_site_fract_z
  _atom_site_attached_hydrogens
  _atom_site_B_iso_or_equiv
  _atom_site_occupancy
   Li  Li1  1  0.124976  0.875037  0.375056  0  .  1
   Li  Li2  1  0.375030  0.124984  0.874975  0  .  1
   Li  Li3  1  0.625012  0.624999  0.624976  0  .  1
   Li  Li4  1  0.874929  0.374978  0.125028  0  .  1
   Mn  Mn5  1  0.001041  0.001039  0.001033  0  .  1
   Mn  Mn6  1  0.998988  0.501049  0.498962  0  .  1
   Mn  Mn7  1  0.126642  0.123394  0.625011  0  .  1
   Mn  Mn8  1  0.123382  0.624995  0.126606  0  .  1
   Mn  Mn9  1  0.124997  0.373409  0.876623  0  .  1
   Mn  Mn10  1  0.248941  0.248999  0.248966  0  .  1
   Mn  Mn11  1  0.251056  0.751030  0.749001  0  .  1
   Mn  Mn12  1  0.376614  0.375004  0.626652  0  .  1
   Mn  Mn13  1  0.374975  0.626634  0.376606  0  .  1
   Mn  Mn14  1  0.373340  0.876604  0.124994  0  .  1
   Mn  Mn15  1  0.498982  0.998932  0.501024  0  .  1
   Mn  Mn16  1  0.501010  0.498959  0.998944  0  .  1
   Mn  Mn17  1  0.624998  0.126602  0.123367  0  .  1
   Mn  Mn18  1  0.626606  0.376610  0.375004  0  .  1
   Mn  Mn19  1  0.623407  0.874991  0.873400  0  .  1
   Mn  Mn20  1  0.748982  0.251047  0.751021  0  .  1
   Mn  Mn21  1  0.751054  0.748968  0.251013  0  .  1
   Mn  Mn22  1  0.876624  0.124998  0.373393  0  .  1
   Mn  Mn23  1  0.873408  0.623373  0.874998  0  .  1
   Mn  Mn24  1  0.875004  0.873373  0.623382  0  .  1
   O  O25  1  0.126149  0.391002  0.105098  0  .  1
   O  O26  1  0.138351  0.361663  0.638350  0  .  1
   O  O27  1  0.144832  0.858998  0.123868  0  .  1
   O  O28  1  0.105101  0.126149  0.390950  0  .  1
   O  O29  1  0.109064  0.894867  0.626130  0  .  1
   O  O30  1  0.123879  0.144894  0.859053  0  .  1
   O  O31  1  0.140965  0.623876  0.355078  0  .  1
   O  O32  1  0.111694  0.611647  0.888354  0  .  1
   O  O33  1  0.390914  0.105100  0.126129  0  .  1
   O  O34  1  0.388266  0.388344  0.388339  0  .  1
   O  O35  1  0.355180  0.140971  0.623870  0  .  1
   O  O36  1  0.358997  0.376123  0.855137  0  .  1
   O  O37  1  0.361601  0.638377  0.138293  0  .  1
   O  O38  1  0.376116  0.855141  0.359022  0  .  1
   O  O39  1  0.373848  0.609032  0.605132  0  .  1
   O  O40  1  0.394897  0.873855  0.890980  0  .  1
   O  O41  1  0.638349  0.138303  0.361709  0  .  1
   O  O42  1  0.623872  0.355137  0.140914  0  .  1
   O  O43  1  0.605095  0.373848  0.609077  0  .  1
   O  O44  1  0.609044  0.605140  0.373854  0  .  1
   O  O45  1  0.626167  0.109047  0.894860  0  .  1
   O  O46  1  0.644855  0.640973  0.876125  0  .  1
   O  O47  1  0.611666  0.888309  0.111696  0  .  1
   O  O48  1  0.640981  0.876127  0.644876  0  .  1
   O  O49  1  0.859050  0.123874  0.144883  0  .  1
   O  O50  1  0.888305  0.111685  0.611675  0  .  1
   O  O51  1  0.855196  0.359017  0.376124  0  .  1
   O  O52  1  0.894934  0.626152  0.109027  0  .  1
   O  O53  1  0.876120  0.644852  0.640956  0  .  1
   O  O54  1  0.890975  0.394889  0.873857  0  .  1
   O  O55  1  0.873853  0.890964  0.394859  0  .  1
   O  O56  1  0.861685  0.861633  0.861693  0  .  1
 
