#\#CIF1.1
##########################################################################
#               Crystallographic Information Format file 
#               Produced by PyCifRW module
# 
#  This is a CIF file.  CIF has been adopted by the International
#  Union of Crystallography as the standard for data archiving and 
#  transmission.
#
#  For information on this file format, follow the CIF links at
#  http://www.iucr.org
##########################################################################

data_LiMnO4
_symmetry_space_group_name_H-M          'P 1'
_cell_length_a                          5.0754632239
_cell_length_b                          5.07546322621
_cell_length_c                          6.58266742
_cell_angle_alpha                       90.0
_cell_angle_beta                        90.0
_cell_angle_gamma                       113.822734827
_chemical_name_systematic               'Generated by pymatgen'
_symmetry_Int_Tables_number             1
_chemical_formula_structural            LiMnO4
_chemical_formula_sum                   'Li2 Mn2 O8'
_cell_volume                            155.124069214
_cell_formula_units_Z                   2
loop_
  _symmetry_equiv_pos_site_id
  _symmetry_equiv_pos_as_xyz
   1  'x, y, z'
 
loop_
  _atom_site_type_symbol
  _atom_site_label
  _atom_site_symmetry_multiplicity
  _atom_site_fract_x
  _atom_site_fract_y
  _atom_site_fract_z
  _atom_site_attached_hydrogens
  _atom_site_B_iso_or_equiv
  _atom_site_occupancy
   Li  Li1  1  0.000000  0.000000  0.000000  0  .  1
   Li  Li2  1  0.000000  0.000000  0.500000  0  .  1
   O  O3  1  0.245075  0.754925  0.949120  0  .  1
   O  O4  1  0.705748  0.776756  0.750000  0  .  1
   O  O5  1  0.754925  0.245075  0.050880  0  .  1
   O  O6  1  0.754925  0.245075  0.449120  0  .  1
   O  O7  1  0.245075  0.754925  0.550880  0  .  1
   O  O8  1  0.776756  0.705748  0.250000  0  .  1
   O  O9  1  0.223244  0.294252  0.750000  0  .  1
   O  O10  1  0.294252  0.223244  0.250000  0  .  1
   Mn  Mn11  1  0.354179  0.645821  0.750000  0  .  1
   Mn  Mn12  1  0.645821  0.354179  0.250000  0  .  1
 
