#\#CIF1.1
##########################################################################
#               Crystallographic Information Format file 
#               Produced by PyCifRW module
# 
#  This is a CIF file.  CIF has been adopted by the International
#  Union of Crystallography as the standard for data archiving and 
#  transmission.
#
#  For information on this file format, follow the CIF links at
#  http://www.iucr.org
##########################################################################

data_LiMn8O16
_symmetry_space_group_name_H-M          'P 1'
_cell_length_a                          5.91740453
_cell_length_b                          23.501425731
_cell_length_c                          10.1895008843
_cell_angle_alpha                       29.8721456979
_cell_angle_beta                        54.4977120591
_cell_angle_gamma                       59.7629749083
_chemical_name_systematic               'Generated by pymatgen'
_symmetry_Int_Tables_number             1
_chemical_formula_structural            LiMn8O16
_chemical_formula_sum                   'Li2 Mn16 O32'
_cell_volume                            574.564975433
_cell_formula_units_Z                   2
loop_
  _symmetry_equiv_pos_site_id
  _symmetry_equiv_pos_as_xyz
   1  'x, y, z'
 
loop_
  _atom_site_type_symbol
  _atom_site_label
  _atom_site_symmetry_multiplicity
  _atom_site_fract_x
  _atom_site_fract_y
  _atom_site_fract_z
  _atom_site_attached_hydrogens
  _atom_site_B_iso_or_equiv
  _atom_site_occupancy
   Li  Li1  1  0.125615  0.250000  0.124385  0  .  1
   Li  Li2  1  0.874385  0.750000  0.875615  0  .  1
   Mn  Mn3  1  0.500000  0.000000  0.500000  0  .  1
   Mn  Mn4  1  0.499921  0.122902  0.504275  0  .  1
   Mn  Mn5  1  0.499671  0.250000  0.500132  0  .  1
   Mn  Mn6  1  0.502429  0.125543  0.996485  0  .  1
   Mn  Mn7  1  0.502429  0.374457  0.498658  0  .  1
   Mn  Mn8  1  1.000066  0.250000  0.500132  0  .  1
   Mn  Mn9  1  0.500000  0.500000  0.500000  0  .  1
   Mn  Mn10  1  0.499921  0.377098  0.995883  0  .  1
   Mn  Mn11  1  0.497571  0.625543  0.501342  0  .  1
   Mn  Mn12  1  0.000000  0.500000  0.500000  0  .  1
   Mn  Mn13  1  0.500329  0.750000  0.499868  0  .  1
   Mn  Mn14  1  0.500079  0.622902  0.004117  0  .  1
   Mn  Mn15  1  0.500079  0.877098  0.495725  0  .  1
   Mn  Mn16  1  -0.000066  0.750000  0.499868  0  .  1
   Mn  Mn17  1  0.497571  0.874457  0.003515  0  .  1
   Mn  Mn18  1  0.000000  0.000000  0.500000  0  .  1
   O  O19  1  0.268978  0.117342  0.246338  0  .  1
   O  O20  1  0.296277  0.999821  0.738703  0  .  1
   O  O21  1  0.266431  0.250000  0.262357  0  .  1
   O  O22  1  0.732996  0.108201  0.300601  0  .  1
   O  O23  1  0.266219  0.358904  0.265973  0  .  1
   O  O24  1  0.266219  0.141096  0.701588  0  .  1
   O  O25  1  0.708856  0.250000  0.262357  0  .  1
   O  O26  1  0.727035  0.999821  0.738703  0  .  1
   O  O27  1  0.298887  0.250000  0.732944  0  .  1
   O  O28  1  0.272965  0.499821  0.262015  0  .  1
   O  O29  1  0.736462  0.140789  0.731959  0  .  1
   O  O30  1  0.736462  0.359211  0.295116  0  .  1
   O  O31  1  0.267004  0.608201  0.266594  0  .  1
   O  O32  1  0.268978  0.382658  0.715707  0  .  1
   O  O33  1  0.703723  0.499821  0.262015  0  .  1
   O  O34  1  0.735224  0.250000  0.732944  0  .  1
   O  O35  1  0.296277  0.500179  0.737985  0  .  1
   O  O36  1  0.264776  0.750000  0.267056  0  .  1
   O  O37  1  0.732996  0.391799  0.733406  0  .  1
   O  O38  1  0.731022  0.617342  0.284293  0  .  1
   O  O39  1  0.263538  0.859211  0.268041  0  .  1
   O  O40  1  0.263538  0.640789  0.704884  0  .  1
   O  O41  1  0.701113  0.750000  0.267056  0  .  1
   O  O42  1  0.727035  0.500179  0.737985  0  .  1
   O  O43  1  0.291144  0.750000  0.737643  0  .  1
   O  O44  1  0.272965  0.000179  0.261297  0  .  1
   O  O45  1  0.733781  0.641096  0.734027  0  .  1
   O  O46  1  0.733781  0.858904  0.298412  0  .  1
   O  O47  1  0.267004  0.891799  0.699399  0  .  1
   O  O48  1  0.703723  0.000179  0.261297  0  .  1
   O  O49  1  0.733569  0.750000  0.737643  0  .  1
   O  O50  1  0.731022  0.882658  0.753662  0  .  1
 
