#\#CIF1.1
##########################################################################
#               Crystallographic Information Format file 
#               Produced by PyCifRW module
# 
#  This is a CIF file.  CIF has been adopted by the International
#  Union of Crystallography as the standard for data archiving and 
#  transmission.
#
#  For information on this file format, follow the CIF links at
#  http://www.iucr.org
##########################################################################

data_LiMn3O5
_symmetry_space_group_name_H-M          'P 1'
_cell_length_a                          9.98285314001
_cell_length_b                          13.37413834
_cell_length_c                          2.94220961
_cell_angle_alpha                       89.9999478464
_cell_angle_beta                        90.0000516578
_cell_angle_gamma                       90.0000902077
_chemical_name_systematic               'Generated by pymatgen'
_symmetry_Int_Tables_number             1
_chemical_formula_structural            LiMn3O5
_chemical_formula_sum                   'Li4 Mn12 O20'
_cell_volume                            392.820462812
_cell_formula_units_Z                   4
loop_
  _symmetry_equiv_pos_site_id
  _symmetry_equiv_pos_as_xyz
   1  'x, y, z'
 
loop_
  _atom_site_type_symbol
  _atom_site_label
  _atom_site_symmetry_multiplicity
  _atom_site_fract_x
  _atom_site_fract_y
  _atom_site_fract_z
  _atom_site_attached_hydrogens
  _atom_site_B_iso_or_equiv
  _atom_site_occupancy
   Li  Li1  1  0.225909  0.864179  0.999995  0  .  1
   Li  Li2  1  0.274037  0.364210  0.999995  0  .  1
   Li  Li3  1  0.725897  0.635837  0.999996  0  .  1
   Li  Li4  1  0.774028  0.135855  0.999995  0  .  1
   Mn  Mn5  1  0.000215  0.000061  0.500008  0  .  1
   Mn  Mn6  1  0.999566  0.499892  0.000024  0  .  1
   Mn  Mn7  1  0.993707  0.291188  0.500001  0  .  1
   Mn  Mn8  1  0.237427  0.117294  -0.000001  0  .  1
   Mn  Mn9  1  0.262525  0.617166  0.000003  0  .  1
   Mn  Mn10  1  0.506307  0.791225  0.500002  0  .  1
   Mn  Mn11  1  0.500200  0.499863  0.499940  0  .  1
   Mn  Mn12  1  0.499663  0.000057  0.000086  0  .  1
   Mn  Mn13  1  0.493622  0.208794  0.499995  0  .  1
   Mn  Mn14  1  0.737476  0.382689  -0.000002  0  .  1
   Mn  Mn15  1  0.762601  0.882816  -0.000003  0  .  1
   Mn  Mn16  1  0.006364  0.708772  0.500000  0  .  1
   O  O17  1  0.122861  0.163879  0.500000  0  .  1
   O  O18  1  0.137187  0.563456  0.500005  0  .  1
   O  O19  1  0.086809  0.362367  0.999993  0  .  1
   O  O20  1  0.126957  0.745362  0.000001  0  .  1
   O  O21  1  0.125984  0.981540  -0.000001  0  .  1
   O  O22  1  0.374357  0.481548  -0.000016  0  .  1
   O  O23  1  0.372992  0.245315  -0.000000  0  .  1
   O  O24  1  0.413105  0.862370  0.000003  0  .  1
   O  O25  1  0.362771  0.063428  0.500005  0  .  1
   O  O26  1  0.377243  0.663879  0.500016  0  .  1
   O  O27  1  0.622704  0.336087  0.499995  0  .  1
   O  O28  1  0.637218  0.936551  0.500005  0  .  1
   O  O29  1  0.586754  0.137642  0.000002  0  .  1
   O  O30  1  0.626862  0.754626  0.999999  0  .  1
   O  O31  1  0.625891  0.518511  0.999979  0  .  1
   O  O32  1  0.874447  0.018531  -0.000002  0  .  1
   O  O33  1  0.873145  0.254624  0.999994  0  .  1
   O  O34  1  0.913130  0.637669  0.999999  0  .  1
   O  O35  1  0.862715  0.436522  0.499993  0  .  1
   O  O36  1  0.877323  0.836196  0.499996  0  .  1
 
