#\#CIF1.1
##########################################################################
#               Crystallographic Information Format file 
#               Produced by PyCifRW module
# 
#  This is a CIF file.  CIF has been adopted by the International
#  Union of Crystallography as the standard for data archiving and 
#  transmission.
#
#  For information on this file format, follow the CIF links at
#  http://www.iucr.org
##########################################################################

data_LiMnO2
_symmetry_space_group_name_H-M          'P 1'
_cell_length_a                          5.185757317
_cell_length_b                          5.18575731889
_cell_length_c                          5.18575726119
_cell_angle_alpha                       33.8832841141
_cell_angle_beta                        33.8832851166
_cell_angle_gamma                       33.8832896599
_chemical_name_systematic               'Generated by pymatgen'
_symmetry_Int_Tables_number             1
_chemical_formula_structural            LiMnO2
_chemical_formula_sum                   'Li1 Mn1 O2'
_cell_volume                            38.6284867635
_cell_formula_units_Z                   1
loop_
  _symmetry_equiv_pos_site_id
  _symmetry_equiv_pos_as_xyz
   1  'x, y, z'
 
loop_
  _atom_site_type_symbol
  _atom_site_label
  _atom_site_symmetry_multiplicity
  _atom_site_fract_x
  _atom_site_fract_y
  _atom_site_fract_z
  _atom_site_attached_hydrogens
  _atom_site_B_iso_or_equiv
  _atom_site_occupancy
   Li  Li1  1  0.500002  0.500002  0.499998  0  .  1
   O  O2  1  0.257580  0.257578  0.257578  0  .  1
   O  O3  1  0.742423  0.742418  0.742423  0  .  1
   Mn  Mn4  1  0.000000  0.000000  0.000000  0  .  1
 
