#\#CIF1.1
##########################################################################
#               Crystallographic Information Format file 
#               Produced by PyCifRW module
# 
#  This is a CIF file.  CIF has been adopted by the International
#  Union of Crystallography as the standard for data archiving and 
#  transmission.
#
#  For information on this file format, follow the CIF links at
#  http://www.iucr.org
##########################################################################

data_LiMn6O12
_symmetry_space_group_name_H-M          'P 1'
_cell_length_a                          6.69534171863
_cell_length_b                          6.68946127738
_cell_length_c                          15.3770645436
_cell_angle_alpha                       82.6868617171
_cell_angle_beta                        97.3374821047
_cell_angle_gamma                       97.922658137
_chemical_name_systematic               'Generated by pymatgen'
_symmetry_Int_Tables_number             1
_chemical_formula_structural            LiMn6O12
_chemical_formula_sum                   'Li3 Mn18 O36'
_cell_volume                            672.320974602
_cell_formula_units_Z                   3
loop_
  _symmetry_equiv_pos_site_id
  _symmetry_equiv_pos_as_xyz
   1  'x, y, z'
 
loop_
  _atom_site_type_symbol
  _atom_site_label
  _atom_site_symmetry_multiplicity
  _atom_site_fract_x
  _atom_site_fract_y
  _atom_site_fract_z
  _atom_site_attached_hydrogens
  _atom_site_B_iso_or_equiv
  _atom_site_occupancy
   Li  Li1  1  0.747178  0.248811  0.084926  0  .  1
   Li  Li2  1  0.749077  0.248244  0.749021  0  .  1
   Li  Li3  1  0.088339  0.588457  0.414588  0  .  1
   Mn  Mn4  1  0.989925  0.012832  0.332654  0  .  1
   Mn  Mn5  1  0.006536  0.992630  0.667426  0  .  1
   Mn  Mn6  1  0.839682  0.826184  0.167252  0  .  1
   Mn  Mn7  1  0.833863  0.835474  0.500116  0  .  1
   Mn  Mn8  1  0.839404  0.825388  0.834139  0  .  1
   Mn  Mn9  1  0.659975  0.673803  0.332036  0  .  1
   Mn  Mn10  1  0.661948  0.669756  0.666417  0  .  1
   Mn  Mn11  1  0.493382  0.506736  0.165997  0  .  1
   Mn  Mn12  1  0.657661  0.676213  0.998071  0  .  1
   Mn  Mn13  1  0.513707  0.489278  0.500769  0  .  1
   Mn  Mn14  1  0.495777  0.503902  0.832746  0  .  1
   Mn  Mn15  1  0.337029  0.332350  0.333397  0  .  1
   Mn  Mn16  1  0.327150  0.338092  0.666491  0  .  1
   Mn  Mn17  1  0.169435  0.162538  0.166849  0  .  1
   Mn  Mn18  1  0.324591  0.340612  0.999030  0  .  1
   Mn  Mn19  1  0.174906  0.158038  0.501945  0  .  1
   Mn  Mn20  1  0.174376  0.159329  0.834684  0  .  1
   Mn  Mn21  1  0.002162  0.997512  0.000244  0  .  1
   O  O22  1  0.897349  0.104472  0.196770  0  .  1
   O  O23  1  0.927259  0.732305  0.293267  0  .  1
   O  O24  1  0.908688  0.095132  0.547575  0  .  1
   O  O25  1  0.927241  0.732614  0.622602  0  .  1
   O  O26  1  0.903186  0.093694  0.875859  0  .  1
   O  O27  1  0.754412  0.562251  0.117773  0  .  1
   O  O28  1  0.926947  0.734657  0.956252  0  .  1
   O  O29  1  0.779242  0.577490  0.449312  0  .  1
   O  O30  1  0.739197  0.941194  0.043195  0  .  1
   O  O31  1  0.759972  0.562041  0.787748  0  .  1
   O  O32  1  0.730568  0.935177  0.380279  0  .  1
   O  O33  1  0.596332  0.407601  0.285845  0  .  1
   O  O34  1  0.742965  0.935415  0.713778  0  .  1
   O  O35  1  0.601499  0.395883  0.636737  0  .  1
   O  O36  1  0.571121  0.767855  0.209849  0  .  1
   O  O37  1  0.434999  0.243616  0.118985  0  .  1
   O  O38  1  0.591929  0.404322  0.956929  0  .  1
   O  O39  1  0.571003  0.755330  0.545610  0  .  1
   O  O40  1  0.436204  0.229573  0.453773  0  .  1
   O  O41  1  0.394501  0.604152  0.043535  0  .  1
   O  O42  1  0.570486  0.767229  0.875422  0  .  1
   O  O43  1  0.439094  0.240855  0.787374  0  .  1
   O  O44  1  0.392566  0.598304  0.370785  0  .  1
   O  O45  1  0.256115  0.070238  0.287511  0  .  1
   O  O46  1  0.397430  0.602040  0.712269  0  .  1
   O  O47  1  0.233974  0.427366  0.211412  0  .  1
   O  O48  1  0.268930  0.069668  0.624499  0  .  1
   O  O49  1  0.265687  0.072274  0.957188  0  .  1
   O  O50  1  0.234056  0.424159  0.543990  0  .  1
   O  O51  1  0.061904  0.261578  0.045426  0  .  1
   O  O52  1  0.101922  0.898831  0.120061  0  .  1
   O  O53  1  0.233432  0.428644  0.876690  0  .  1
   O  O54  1  0.079078  0.277799  0.384578  0  .  1
   O  O55  1  0.100047  0.891562  0.463454  0  .  1
   O  O56  1  0.063174  0.255893  0.714238  0  .  1
   O  O57  1  0.102823  0.895173  0.789874  0  .  1
 
