#\#CIF1.1
##########################################################################
#               Crystallographic Information Format file 
#               Produced by PyCifRW module
# 
#  This is a CIF file.  CIF has been adopted by the International
#  Union of Crystallography as the standard for data archiving and 
#  transmission.
#
#  For information on this file format, follow the CIF links at
#  http://www.iucr.org
##########################################################################

data_LiNiS2
_symmetry_space_group_name_H-M          'P 1'
_cell_length_a                          3.42555845816
_cell_length_b                          6.85372216916
_cell_length_c                          5.75880263411
_cell_angle_alpha                       90.0317393166
_cell_angle_beta                        89.7983091739
_cell_angle_gamma                       120.024562076
_chemical_name_systematic               'Generated by pymatgen'
_symmetry_Int_Tables_number             1
_chemical_formula_structural            LiNiS2
_chemical_formula_sum                   'Li2 Ni2 S4'
_cell_volume                            117.060412217
_cell_formula_units_Z                   2
loop_
  _symmetry_equiv_pos_site_id
  _symmetry_equiv_pos_as_xyz
   1  'x, y, z'
 
loop_
  _atom_site_type_symbol
  _atom_site_label
  _atom_site_symmetry_multiplicity
  _atom_site_fract_x
  _atom_site_fract_y
  _atom_site_fract_z
  _atom_site_attached_hydrogens
  _atom_site_B_iso_or_equiv
  _atom_site_occupancy
   Li  Li1  1  0.006820  0.748970  0.000979  0  .  1
   Li  Li2  1  0.979914  0.243444  0.000111  0  .  1
   Ni  Ni3  1  0.994317  0.248080  0.500233  0  .  1
   Ni  Ni4  1  0.998624  0.747278  0.500567  0  .  1
   S  S5  1  0.326948  0.080282  0.712287  0  .  1
   S  S6  1  0.332045  0.580392  0.712219  0  .  1
   S  S7  1  0.665179  0.914604  0.288709  0  .  1
   S  S8  1  0.660074  0.414484  0.288280  0  .  1
 
