#\#CIF1.1
##########################################################################
#               Crystallographic Information Format file 
#               Produced by PyCifRW module
# 
#  This is a CIF file.  CIF has been adopted by the International
#  Union of Crystallography as the standard for data archiving and 
#  transmission.
#
#  For information on this file format, follow the CIF links at
#  http://www.iucr.org
##########################################################################

data_LiNi2O3
_symmetry_space_group_name_H-M          'P 1'
_cell_length_a                          5.0685206108
_cell_length_b                          5.09070459629
_cell_length_c                          9.7450180436
_cell_angle_alpha                       95.2266025288
_cell_angle_beta                        100.543818541
_cell_angle_gamma                       60.1440573008
_chemical_name_systematic               'Generated by pymatgen'
_symmetry_Int_Tables_number             1
_chemical_formula_structural            LiNi2O3
_chemical_formula_sum                   'Li4 Ni8 O12'
_cell_volume                            214.390445325
_cell_formula_units_Z                   4
loop_
  _symmetry_equiv_pos_site_id
  _symmetry_equiv_pos_as_xyz
   1  'x, y, z'
 
loop_
  _atom_site_type_symbol
  _atom_site_label
  _atom_site_symmetry_multiplicity
  _atom_site_fract_x
  _atom_site_fract_y
  _atom_site_fract_z
  _atom_site_attached_hydrogens
  _atom_site_B_iso_or_equiv
  _atom_site_occupancy
   Li  Li1  1  0.911586  0.676828  0.750000  0  .  1
   Li  Li2  1  0.251565  0.996869  0.750000  0  .  1
   Li  Li3  1  0.421747  0.656506  0.250000  0  .  1
   Li  Li4  1  0.081768  0.336464  0.250000  0  .  1
   Ni  Ni5  1  0.581901  0.336199  0.750000  0  .  1
   Ni  Ni6  1  0.833092  0.332546  0.499554  0  .  1
   Ni  Ni7  1  0.500242  0.000788  0.500446  0  .  1
   Ni  Ni8  1  0.166667  0.666667  0.500000  0  .  1
   Ni  Ni9  1  0.751432  0.997134  0.250000  0  .  1
   Ni  Ni10  1  0.666667  0.666667  0.000000  0  .  1
   Ni  Ni11  1  0.334362  0.332546  0.000446  0  .  1
   Ni  Ni12  1  0.998972  0.000788  0.999554  0  .  1
   O  O13  1  0.935018  0.356814  0.884016  0  .  1
   O  O14  1  0.620020  0.013537  0.874777  0  .  1
   O  O15  1  0.318418  0.662570  0.885016  0  .  1
   O  O16  1  0.519013  0.662570  0.614984  0  .  1
   O  O17  1  0.866443  0.013537  0.625223  0  .  1
   O  O18  1  0.208168  0.356814  0.615984  0  .  1
   O  O19  1  0.814321  0.670763  0.385016  0  .  1
   O  O20  1  0.466891  0.319797  0.374777  0  .  1
   O  O21  1  0.125166  0.976519  0.384016  0  .  1
   O  O22  1  0.713313  0.319797  0.125223  0  .  1
   O  O23  1  0.398316  0.976519  0.115984  0  .  1
   O  O24  1  0.014915  0.670763  0.114984  0  .  1
 
