#\#CIF1.1
##########################################################################
#               Crystallographic Information Format file 
#               Produced by PyCifRW module
# 
#  This is a CIF file.  CIF has been adopted by the International
#  Union of Crystallography as the standard for data archiving and 
#  transmission.
#
#  For information on this file format, follow the CIF links at
#  http://www.iucr.org
##########################################################################

data_LiTi4O8
_symmetry_space_group_name_H-M          'P 1'
_cell_length_a                          5.06662591894
_cell_length_b                          9.63663854976
_cell_length_c                          2.97440986
_cell_angle_alpha                       90.0
_cell_angle_beta                        90.0
_cell_angle_gamma                       91.1167643723
_chemical_name_systematic               'Generated by pymatgen'
_symmetry_Int_Tables_number             1
_chemical_formula_structural            LiTi4O8
_chemical_formula_sum                   'Li1 Ti4 O8'
_cell_volume                            145.198697746
_cell_formula_units_Z                   1
loop_
  _symmetry_equiv_pos_site_id
  _symmetry_equiv_pos_as_xyz
   1  'x, y, z'
 
loop_
  _atom_site_type_symbol
  _atom_site_label
  _atom_site_symmetry_multiplicity
  _atom_site_fract_x
  _atom_site_fract_y
  _atom_site_fract_z
  _atom_site_attached_hydrogens
  _atom_site_B_iso_or_equiv
  _atom_site_occupancy
   Li  Li1  1  0.934539  0.464889  0.250000  0  .  1
   Ti  Ti2  1  0.038518  0.861407  0.750000  0  .  1
   Ti  Ti3  1  0.465071  0.356487  0.750000  0  .  1
   Ti  Ti4  1  0.526224  0.644255  0.250000  0  .  1
   Ti  Ti5  1  0.958465  0.132917  0.250000  0  .  1
   O  O6  1  0.169935  0.228792  0.750000  0  .  1
   O  O7  1  0.192135  0.964689  0.250000  0  .  1
   O  O8  1  0.302793  0.467566  0.250000  0  .  1
   O  O9  1  0.321607  0.726425  0.750000  0  .  1
   O  O10  1  0.691750  0.282471  0.250000  0  .  1
   O  O11  1  0.708984  0.532327  0.750000  0  .  1
   O  O12  1  0.801258  0.035411  0.750000  0  .  1
   O  O13  1  0.827721  0.771863  0.250000  0  .  1
 
