#\#CIF1.1
##########################################################################
#               Crystallographic Information Format file 
#               Produced by PyCifRW module
# 
#  This is a CIF file.  CIF has been adopted by the International
#  Union of Crystallography as the standard for data archiving and 
#  transmission.
#
#  For information on this file format, follow the CIF links at
#  http://www.iucr.org
##########################################################################

data_LiTiS2
_symmetry_space_group_name_H-M          'P 1'
_cell_length_a                          7.11210543273
_cell_length_b                          7.11210892584
_cell_length_c                          7.11210543273
_cell_angle_alpha                       60.0000162471
_cell_angle_beta                        90.0
_cell_angle_gamma                       119.999983753
_chemical_name_systematic               'Generated by pymatgen'
_symmetry_Int_Tables_number             1
_chemical_formula_structural            LiTiS2
_chemical_formula_sum                   'Li4 Ti4 S8'
_cell_volume                            254.378257039
_cell_formula_units_Z                   4
loop_
  _symmetry_equiv_pos_site_id
  _symmetry_equiv_pos_as_xyz
   1  'x, y, z'
 
loop_
  _atom_site_type_symbol
  _atom_site_label
  _atom_site_symmetry_multiplicity
  _atom_site_fract_x
  _atom_site_fract_y
  _atom_site_fract_z
  _atom_site_attached_hydrogens
  _atom_site_B_iso_or_equiv
  _atom_site_occupancy
   Li  Li1  1  0.000000  0.000000  0.000000  0  .  1
   Li  Li2  1  0.500000  0.500000  0.000000  0  .  1
   Li  Li3  1  0.000000  0.500000  0.000000  0  .  1
   Li  Li4  1  0.000000  0.000000  0.500000  0  .  1
   Ti  Ti5  1  0.500000  0.000000  0.000000  0  .  1
   Ti  Ti6  1  0.500000  0.000000  0.500000  0  .  1
   Ti  Ti7  1  0.500000  0.500000  0.500000  0  .  1
   Ti  Ti8  1  0.000000  0.500000  0.500000  0  .  1
   S  S9  1  0.747177  0.005646  0.747177  0  .  1
   S  S10  1  0.747177  0.494354  0.258469  0  .  1
   S  S11  1  0.747177  0.494354  0.747177  0  .  1
   S  S12  1  0.258469  0.005646  0.747177  0  .  1
   S  S13  1  0.252823  0.505646  0.252823  0  .  1
   S  S14  1  0.741531  0.994354  0.252823  0  .  1
   S  S15  1  0.252823  0.994354  0.252823  0  .  1
   S  S16  1  0.252823  0.505646  0.741531  0  .  1
 
