#\#CIF1.1
##########################################################################
#               Crystallographic Information Format file 
#               Produced by PyCifRW module
# 
#  This is a CIF file.  CIF has been adopted by the International
#  Union of Crystallography as the standard for data archiving and 
#  transmission.
#
#  For information on this file format, follow the CIF links at
#  http://www.iucr.org
##########################################################################

data_LiTi8O13
_symmetry_space_group_name_H-M          'P 1'
_cell_length_a                          6.48728343696
_cell_length_b                          6.48728309377
_cell_length_c                          6.48728330328
_cell_angle_alpha                       73.8010065624
_cell_angle_beta                        73.8010137557
_cell_angle_gamma                       73.8010094601
_chemical_name_systematic               'Generated by pymatgen'
_symmetry_Int_Tables_number             1
_chemical_formula_structural            LiTi8O13
_chemical_formula_sum                   'Li1 Ti8 O13'
_cell_volume                            245.706097478
_cell_formula_units_Z                   1
loop_
  _symmetry_equiv_pos_site_id
  _symmetry_equiv_pos_as_xyz
   1  'x, y, z'
 
loop_
  _atom_site_type_symbol
  _atom_site_label
  _atom_site_symmetry_multiplicity
  _atom_site_fract_x
  _atom_site_fract_y
  _atom_site_fract_z
  _atom_site_attached_hydrogens
  _atom_site_B_iso_or_equiv
  _atom_site_occupancy
   Li  Li1  1  0.500000  0.500000  0.500000  0  .  1
   Ti  Ti2  1  0.124553  0.949785  0.682726  0  .  1
   Ti  Ti3  1  0.317274  0.875447  0.050215  0  .  1
   Ti  Ti4  1  0.050215  0.317274  0.875447  0  .  1
   Ti  Ti5  1  0.272118  0.272118  0.272118  0  .  1
   Ti  Ti6  1  0.727882  0.727882  0.727882  0  .  1
   Ti  Ti7  1  0.949785  0.682726  0.124553  0  .  1
   Ti  Ti8  1  0.682726  0.124553  0.949785  0  .  1
   Ti  Ti9  1  0.875447  0.050215  0.317274  0  .  1
   O  O10  1  0.206150  0.952993  0.356578  0  .  1
   O  O11  1  0.047007  0.643422  0.793850  0  .  1
   O  O12  1  0.420379  0.819732  0.735096  0  .  1
   O  O13  1  0.264904  0.579621  0.180268  0  .  1
   O  O14  1  0.643422  0.793850  0.047007  0  .  1
   O  O15  1  0.180268  0.264904  0.579621  0  .  1
   O  O16  1  0.000000  0.000000  0.000000  0  .  1
   O  O17  1  0.819732  0.735096  0.420379  0  .  1
   O  O18  1  0.356578  0.206150  0.952993  0  .  1
   O  O19  1  0.735096  0.420379  0.819732  0  .  1
   O  O20  1  0.579621  0.180268  0.264904  0  .  1
   O  O21  1  0.952993  0.356578  0.206150  0  .  1
   O  O22  1  0.793850  0.047007  0.643422  0  .  1
 
