#\#CIF1.1
##########################################################################
#               Crystallographic Information Format file 
#               Produced by PyCifRW module
# 
#  This is a CIF file.  CIF has been adopted by the International
#  Union of Crystallography as the standard for data archiving and 
#  transmission.
#
#  For information on this file format, follow the CIF links at
#  http://www.iucr.org
##########################################################################

data_LiV6O13
_symmetry_space_group_name_H-M          'P 1'
_cell_length_a                          3.72100118592
_cell_length_b                          11.4449707315
_cell_length_c                          12.1292144881
_cell_angle_alpha                       110.441096811
_cell_angle_beta                        90.1813810541
_cell_angle_gamma                       99.3426943266
_chemical_name_systematic               'Generated by pymatgen'
_symmetry_Int_Tables_number             1
_chemical_formula_structural            LiV6O13
_chemical_formula_sum                   'Li2 V12 O26'
_cell_volume                            476.59544142
_cell_formula_units_Z                   2
loop_
  _symmetry_equiv_pos_site_id
  _symmetry_equiv_pos_as_xyz
   1  'x, y, z'
 
loop_
  _atom_site_type_symbol
  _atom_site_label
  _atom_site_symmetry_multiplicity
  _atom_site_fract_x
  _atom_site_fract_y
  _atom_site_fract_z
  _atom_site_attached_hydrogens
  _atom_site_B_iso_or_equiv
  _atom_site_occupancy
   V  V1  1  0.773111  0.551435  0.925998  0  .  1
   V  V2  1  0.226889  0.448565  0.074002  0  .  1
   V  V3  1  0.221220  0.493767  0.388762  0  .  1
   V  V4  1  0.778780  0.506233  0.611238  0  .  1
   V  V5  1  0.947491  0.896568  0.041571  0  .  1
   V  V6  1  0.052509  0.103432  0.958429  0  .  1
   V  V7  1  0.426610  0.855003  0.515979  0  .  1
   V  V8  1  0.573390  0.144997  0.484021  0  .  1
   V  V9  1  0.927699  0.854343  0.716355  0  .  1
   V  V10  1  0.072301  0.145657  0.283645  0  .  1
   V  V11  1  0.435991  0.871716  0.230541  0  .  1
   V  V12  1  0.564009  0.128284  0.769459  0  .  1
   O  O13  1  0.754591  0.506212  0.071861  0  .  1
   O  O14  1  0.245409  0.493788  0.928139  0  .  1
   O  O15  1  0.247307  0.497868  0.570255  0  .  1
   O  O16  1  0.752693  0.502132  0.429745  0  .  1
   O  O17  1  0.936054  0.873689  0.558351  0  .  1
   O  O18  1  0.063946  0.126311  0.441649  0  .  1
   O  O19  1  0.443945  0.888684  0.068756  0  .  1
   O  O20  1  0.556055  0.111316  0.931244  0  .  1
   O  O21  1  0.959506  0.918911  0.217604  0  .  1
   O  O22  1  0.040494  0.081089  0.782396  0  .  1
   O  O23  1  0.448860  0.897446  0.695522  0  .  1
   O  O24  1  0.551140  0.102554  0.304478  0  .  1
   O  O25  1  0.739443  0.496161  0.755431  0  .  1
   O  O26  1  0.260557  0.503839  0.244569  0  .  1
   O  O27  1  0.854791  0.710497  0.972267  0  .  1
   O  O28  1  0.145209  0.289503  0.027733  0  .  1
   O  O29  1  0.344470  0.696488  0.449221  0  .  1
   O  O30  1  0.655530  0.303512  0.550779  0  .  1
   O  O31  1  0.850287  0.693836  0.678372  0  .  1
   O  O32  1  0.149713  0.306164  0.321628  0  .  1
   O  O33  1  0.357170  0.714414  0.196106  0  .  1
   O  O34  1  0.642830  0.285587  0.803894  0  .  1
   O  O35  1  0.959068  0.917905  0.893311  0  .  1
   O  O36  1  0.040932  0.082095  0.106689  0  .  1
   O  O37  1  0.457120  0.914496  0.400074  0  .  1
   O  O38  1  0.542880  0.085504  0.599926  0  .  1
   Li  Li39  1  0.812150  0.629879  0.236126  0  .  1
   Li  Li40  1  0.187850  0.370121  0.763874  0  .  1
 
