#\#CIF1.1
##########################################################################
#               Crystallographic Information Format file 
#               Produced by PyCifRW module
# 
#  This is a CIF file.  CIF has been adopted by the International
#  Union of Crystallography as the standard for data archiving and 
#  transmission.
#
#  For information on this file format, follow the CIF links at
#  http://www.iucr.org
##########################################################################

data_LiVO3
_symmetry_space_group_name_H-M          'P 1'
_cell_length_a                          15.5029287368
_cell_length_b                          9.96281597485
_cell_length_c                          9.96281585768
_cell_angle_alpha                       16.6782670962
_cell_angle_beta                        16.5560464875
_cell_angle_gamma                       16.5560503696
_chemical_name_systematic               'Generated by pymatgen'
_symmetry_Int_Tables_number             1
_chemical_formula_structural            LiVO3
_chemical_formula_sum                   'Li2 V2 O6'
_cell_volume                            109.481378945
_cell_formula_units_Z                   2
loop_
  _symmetry_equiv_pos_site_id
  _symmetry_equiv_pos_as_xyz
   1  'x, y, z'
 
loop_
  _atom_site_type_symbol
  _atom_site_label
  _atom_site_symmetry_multiplicity
  _atom_site_fract_x
  _atom_site_fract_y
  _atom_site_fract_z
  _atom_site_attached_hydrogens
  _atom_site_B_iso_or_equiv
  _atom_site_occupancy
   Li  Li1  1  0.666667  0.000000  0.000000  0  .  1
   Li  Li2  1  0.166667  0.500000  0.500000  0  .  1
   V  V3  1  0.030257  0.972749  0.972749  0  .  1
   V  V4  1  0.303076  0.027251  0.027251  0  .  1
   O  O5  1  0.197767  0.296490  0.296490  0  .  1
   O  O6  1  0.561646  0.280707  0.280707  0  .  1
   O  O7  1  0.135566  0.703510  0.703510  0  .  1
   O  O8  1  0.981193  0.210856  0.210856  0  .  1
   O  O9  1  0.352141  0.789144  0.789144  0  .  1
   O  O10  1  0.771688  0.719293  0.719293  0  .  1
 
