#\#CIF1.1
##########################################################################
#               Crystallographic Information Format file 
#               Produced by PyCifRW module
# 
#  This is a CIF file.  CIF has been adopted by the International
#  Union of Crystallography as the standard for data archiving and 
#  transmission.
#
#  For information on this file format, follow the CIF links at
#  http://www.iucr.org
##########################################################################

data_LiZnO2
_symmetry_space_group_name_H-M          'P 1'
_cell_length_a                          5.21076654464
_cell_length_b                          5.21076654464
_cell_length_c                          5.21076654464
_cell_angle_alpha                       132.573652632
_cell_angle_beta                        132.573652632
_cell_angle_gamma                       69.3245000047
_chemical_name_systematic               'Generated by pymatgen'
_symmetry_Int_Tables_number             1
_chemical_formula_structural            LiZnO2
_chemical_formula_sum                   'Li2 Zn2 O4'
_cell_volume                            75.2843693885
_cell_formula_units_Z                   2
loop_
  _symmetry_equiv_pos_site_id
  _symmetry_equiv_pos_as_xyz
   1  'x, y, z'
 
loop_
  _atom_site_type_symbol
  _atom_site_label
  _atom_site_symmetry_multiplicity
  _atom_site_fract_x
  _atom_site_fract_y
  _atom_site_fract_z
  _atom_site_attached_hydrogens
  _atom_site_B_iso_or_equiv
  _atom_site_occupancy
   Li  Li1  1  0.000000  0.000000  0.000000  0  .  1
   Li  Li2  1  0.750000  0.250000  0.500000  0  .  1
   Zn  Zn3  1  0.500000  0.500000  0.000000  0  .  1
   Zn  Zn4  1  0.250000  0.750000  0.500000  0  .  1
   O  O5  1  0.482532  0.982532  0.500000  0  .  1
   O  O6  1  0.267468  0.267468  0.000000  0  .  1
   O  O7  1  0.732532  0.732532  0.000000  0  .  1
   O  O8  1  0.017468  0.517468  0.500000  0  .  1
 
