#\#CIF1.1
##########################################################################
#               Crystallographic Information Format file 
#               Produced by PyCifRW module
# 
#  This is a CIF file.  CIF has been adopted by the International
#  Union of Crystallography as the standard for data archiving and 
#  transmission.
#
#  For information on this file format, follow the CIF links at
#  http://www.iucr.org
##########################################################################

data_Lu(FeSi)2
_symmetry_space_group_name_H-M          'P 1'
_cell_length_a                          3.92872200891
_cell_length_b                          3.92872266746
_cell_length_c                          5.46675198314
_cell_angle_alpha                       111.058979495
_cell_angle_beta                        111.058982269
_cell_angle_gamma                       89.9999992072
_chemical_name_systematic               'Generated by pymatgen'
_symmetry_Int_Tables_number             1
_chemical_formula_structural            Lu(FeSi)2
_chemical_formula_sum                   'Lu1 Fe2 Si2'
_cell_volume                            72.6717131171
_cell_formula_units_Z                   1
loop_
  _symmetry_equiv_pos_site_id
  _symmetry_equiv_pos_as_xyz
   1  'x, y, z'
 
loop_
  _atom_site_type_symbol
  _atom_site_label
  _atom_site_symmetry_multiplicity
  _atom_site_fract_x
  _atom_site_fract_y
  _atom_site_fract_z
  _atom_site_attached_hydrogens
  _atom_site_B_iso_or_equiv
  _atom_site_occupancy
   Lu  Lu1  1  0.000000  0.000000  0.000000  0  .  1
   Fe  Fe2  1  0.250000  0.750000  0.500000  0  .  1
   Fe  Fe3  1  0.750000  0.250000  0.500000  0  .  1
   Si  Si4  1  0.368018  0.368018  0.736035  0  .  1
   Si  Si5  1  0.631982  0.631982  0.263965  0  .  1
 
