#\#CIF1.1
##########################################################################
#               Crystallographic Information Format file 
#               Produced by PyCifRW module
# 
#  This is a CIF file.  CIF has been adopted by the International
#  Union of Crystallography as the standard for data archiving and 
#  transmission.
#
#  For information on this file format, follow the CIF links at
#  http://www.iucr.org
##########################################################################

data_Lu(MnGe)2
_symmetry_space_group_name_H-M          'P 1'
_cell_length_a                          3.89661361097
_cell_length_b                          3.89661361204
_cell_length_c                          6.06166516254
_cell_angle_alpha                       108.748486639
_cell_angle_beta                        108.748486703
_cell_angle_gamma                       89.9999999563
_chemical_name_systematic               'Generated by pymatgen'
_symmetry_Int_Tables_number             1
_chemical_formula_structural            Lu(MnGe)2
_chemical_formula_sum                   'Lu1 Mn2 Ge2'
_cell_volume                            81.9801593533
_cell_formula_units_Z                   1
loop_
  _symmetry_equiv_pos_site_id
  _symmetry_equiv_pos_as_xyz
   1  'x, y, z'
 
loop_
  _atom_site_type_symbol
  _atom_site_label
  _atom_site_symmetry_multiplicity
  _atom_site_fract_x
  _atom_site_fract_y
  _atom_site_fract_z
  _atom_site_attached_hydrogens
  _atom_site_B_iso_or_equiv
  _atom_site_occupancy
   Mn  Mn1  1  0.250000  0.750000  0.500000  0  .  1
   Mn  Mn2  1  0.750000  0.250000  0.500000  0  .  1
   Ge  Ge3  1  0.617128  0.617128  0.234256  0  .  1
   Ge  Ge4  1  0.382872  0.382872  0.765744  0  .  1
   Lu  Lu5  1  0.000000  0.000000  0.000000  0  .  1
 
