#\#CIF1.1
##########################################################################
#               Crystallographic Information Format file 
#               Produced by PyCifRW module
# 
#  This is a CIF file.  CIF has been adopted by the International
#  Union of Crystallography as the standard for data archiving and 
#  transmission.
#
#  For information on this file format, follow the CIF links at
#  http://www.iucr.org
##########################################################################

data_Lu(SiOs)2
_symmetry_space_group_name_H-M          'P 1'
_cell_length_a                          4.16666021566
_cell_length_b                          4.16666020754
_cell_length_c                          5.59938545915
_cell_angle_alpha                       111.842969956
_cell_angle_beta                        111.842969897
_cell_angle_gamma                       89.9999999324
_chemical_name_systematic               'Generated by pymatgen'
_symmetry_Int_Tables_number             1
_chemical_formula_structural            Lu(SiOs)2
_chemical_formula_sum                   'Lu1 Si2 Os2'
_cell_volume                            82.6659625276
_cell_formula_units_Z                   1
loop_
  _symmetry_equiv_pos_site_id
  _symmetry_equiv_pos_as_xyz
   1  'x, y, z'
 
loop_
  _atom_site_type_symbol
  _atom_site_label
  _atom_site_symmetry_multiplicity
  _atom_site_fract_x
  _atom_site_fract_y
  _atom_site_fract_z
  _atom_site_attached_hydrogens
  _atom_site_B_iso_or_equiv
  _atom_site_occupancy
   Si  Si1  1  0.626738  0.626738  0.253476  0  .  1
   Si  Si2  1  0.373262  0.373262  0.746524  0  .  1
   Lu  Lu3  1  0.000000  0.000000  0.000000  0  .  1
   Os  Os4  1  0.250000  0.750000  0.500000  0  .  1
   Os  Os5  1  0.750000  0.250000  0.500000  0  .  1
 
