#\#CIF1.1
##########################################################################
#               Crystallographic Information Format file 
#               Produced by PyCifRW module
# 
#  This is a CIF file.  CIF has been adopted by the International
#  Union of Crystallography as the standard for data archiving and 
#  transmission.
#
#  For information on this file format, follow the CIF links at
#  http://www.iucr.org
##########################################################################

data_LuHCl
_symmetry_space_group_name_H-M          'P 1'
_cell_length_a                          9.47242727189
_cell_length_b                          9.47242726971
_cell_length_c                          9.47242726705
_cell_angle_alpha                       22.242533688
_cell_angle_beta                        22.2425337048
_cell_angle_gamma                       22.2425337094
_chemical_name_systematic               'Generated by pymatgen'
_symmetry_Int_Tables_number             1
_chemical_formula_structural            LuHCl
_chemical_formula_sum                   'Lu2 H2 Cl2'
_cell_volume                            106.789457211
_cell_formula_units_Z                   2
loop_
  _symmetry_equiv_pos_site_id
  _symmetry_equiv_pos_as_xyz
   1  'x, y, z'
 
loop_
  _atom_site_type_symbol
  _atom_site_label
  _atom_site_symmetry_multiplicity
  _atom_site_fract_x
  _atom_site_fract_y
  _atom_site_fract_z
  _atom_site_attached_hydrogens
  _atom_site_B_iso_or_equiv
  _atom_site_occupancy
   H  H1  1  0.803654  0.803654  0.803654  0  .  1
   H  H2  1  0.196346  0.196346  0.196346  0  .  1
   Cl  Cl3  1  0.392317  0.392317  0.392317  0  .  1
   Cl  Cl4  1  0.607683  0.607683  0.607683  0  .  1
   Lu  Lu5  1  0.880493  0.880493  0.880493  0  .  1
   Lu  Lu6  1  0.119507  0.119507  0.119507  0  .  1
 
