#\#CIF1.1
##########################################################################
#               Crystallographic Information Format file 
#               Produced by PyCifRW module
# 
#  This is a CIF file.  CIF has been adopted by the International
#  Union of Crystallography as the standard for data archiving and 
#  transmission.
#
#  For information on this file format, follow the CIF links at
#  http://www.iucr.org
##########################################################################

data_Mg(FeO2)2
_symmetry_space_group_name_H-M          'P 1'
_cell_length_a                          5.86268768106
_cell_length_b                          5.85752766831
_cell_length_c                          5.83735387784
_cell_angle_alpha                       59.8798979542
_cell_angle_beta                        59.9650242575
_cell_angle_gamma                       59.9541811985
_chemical_name_systematic               'Generated by pymatgen'
_symmetry_Int_Tables_number             1
_chemical_formula_structural            Mg(FeO2)2
_chemical_formula_sum                   'Mg2 Fe4 O8'
_cell_volume                            141.530944717
_cell_formula_units_Z                   2
loop_
  _symmetry_equiv_pos_site_id
  _symmetry_equiv_pos_as_xyz
   1  'x, y, z'
 
loop_
  _atom_site_type_symbol
  _atom_site_label
  _atom_site_symmetry_multiplicity
  _atom_site_fract_x
  _atom_site_fract_y
  _atom_site_fract_z
  _atom_site_attached_hydrogens
  _atom_site_B_iso_or_equiv
  _atom_site_occupancy
   Mg  Mg1  1  0.125012  0.124685  0.125493  0  .  1
   Mg  Mg2  1  0.874988  0.875315  0.874506  0  .  1
   Fe  Fe3  1  0.500000  0.500000  -0.000000  0  .  1
   Fe  Fe4  1  0.500000  0.000000  0.500000  0  .  1
   Fe  Fe5  1  0.500000  0.500000  0.500001  0  .  1
   Fe  Fe6  1  0.000001  0.500000  0.499999  0  .  1
   O  O7  1  0.261553  0.262572  0.263371  0  .  1
   O  O8  1  0.287301  0.737687  0.737306  0  .  1
   O  O9  1  0.736746  0.737217  0.288416  0  .  1
   O  O10  1  0.712698  0.262315  0.262695  0  .  1
   O  O11  1  0.738469  0.287746  0.736348  0  .  1
   O  O12  1  0.261532  0.712254  0.263652  0  .  1
   O  O13  1  0.263254  0.262783  0.711584  0  .  1
   O  O14  1  0.738447  0.737427  0.736629  0  .  1
 
