#\#CIF1.1
##########################################################################
#               Crystallographic Information Format file 
#               Produced by PyCifRW module
# 
#  This is a CIF file.  CIF has been adopted by the International
#  Union of Crystallography as the standard for data archiving and 
#  transmission.
#
#  For information on this file format, follow the CIF links at
#  http://www.iucr.org
##########################################################################

data_Mg(TiS2)8
_symmetry_space_group_name_H-M          'P 1'
_cell_length_a                          7.01697628
_cell_length_b                          28.0311294027
_cell_length_c                          12.1404501703
_cell_angle_alpha                       29.9786145153
_cell_angle_beta                        54.6911834241
_cell_angle_gamma                       59.9565936269
_chemical_name_systematic               'Generated by pymatgen'
_symmetry_Int_Tables_number             1
_chemical_formula_structural            Mg(TiS2)8
_chemical_formula_sum                   'Mg2 Ti16 S32'
_cell_volume                            973.712109542
_cell_formula_units_Z                   2
loop_
  _symmetry_equiv_pos_site_id
  _symmetry_equiv_pos_as_xyz
   1  'x, y, z'
 
loop_
  _atom_site_type_symbol
  _atom_site_label
  _atom_site_symmetry_multiplicity
  _atom_site_fract_x
  _atom_site_fract_y
  _atom_site_fract_z
  _atom_site_attached_hydrogens
  _atom_site_B_iso_or_equiv
  _atom_site_occupancy
   Mg  Mg1  1  0.000000  0.875000  0.000000  0  .  1
   Mg  Mg2  1  0.000000  0.375000  0.500000  0  .  1
   S  S3  1  0.254330  0.999133  0.253525  0  .  1
   S  S4  1  0.253904  0.121089  0.253918  0  .  1
   S  S5  1  0.742089  0.999133  0.253525  0  .  1
   S  S6  1  0.254330  0.250867  0.250057  0  .  1
   S  S7  1  0.745987  0.122833  0.258347  0  .  1
   S  S8  1  0.254568  0.371505  0.252422  0  .  1
   S  S9  1  0.253904  0.128911  0.738273  0  .  1
   S  S10  1  0.742089  0.250867  0.250057  0  .  1
   S  S11  1  0.260930  0.248742  0.748759  0  .  1
   S  S12  1  0.253417  0.501258  0.251241  0  .  1
   S  S13  1  0.254013  0.622833  0.250320  0  .  1
   S  S14  1  0.745987  0.127167  0.749680  0  .  1
   S  S15  1  0.746982  0.371027  0.260964  0  .  1
   S  S16  1  0.253018  0.378973  0.739036  0  .  1
   S  S17  1  0.746583  0.248742  0.748759  0  .  1
   S  S18  1  0.739070  0.501258  0.251241  0  .  1
   S  S19  1  0.257911  0.499133  0.749943  0  .  1
   S  S20  1  0.253417  0.748742  0.256272  0  .  1
   S  S21  1  0.253018  0.871027  0.254928  0  .  1
   S  S22  1  0.745432  0.378495  0.747578  0  .  1
   S  S23  1  0.254013  0.627167  0.741653  0  .  1
   S  S24  1  0.746096  0.621089  0.261727  0  .  1
   S  S25  1  0.745670  0.499133  0.749943  0  .  1
   S  S26  1  0.739070  0.748742  0.256272  0  .  1
   S  S27  1  0.257911  0.750867  0.746475  0  .  1
   S  S28  1  0.745432  0.871505  0.261557  0  .  1
   S  S29  1  0.746096  0.628911  0.746082  0  .  1
   S  S30  1  0.254568  0.878495  0.738443  0  .  1
   S  S31  1  0.745670  0.750867  0.746475  0  .  1
   S  S32  1  0.260930  0.001258  0.743728  0  .  1
   S  S33  1  0.746982  0.878973  0.745072  0  .  1
   S  S34  1  0.746583  0.001258  0.743728  0  .  1
   Ti  Ti35  1  0.494404  0.118305  0.018987  0  .  1
   Ti  Ti36  1  0.512502  0.002537  0.490311  0  .  1
   Ti  Ti37  1  0.500000  0.375000  0.000000  0  .  1
   Ti  Ti38  1  0.494404  0.131695  0.492206  0  .  1
   Ti  Ti39  1  0.512502  0.247463  0.500457  0  .  1
   Ti  Ti40  1  0.505596  0.631695  0.981013  0  .  1
   Ti  Ti41  1  0.500000  0.375000  0.500000  0  .  1
   Ti  Ti42  1  0.996730  0.247463  0.500457  0  .  1
   Ti  Ti43  1  0.487498  0.502537  0.499543  0  .  1
   Ti  Ti44  1  0.003270  0.747463  0.509689  0  .  1
   Ti  Ti45  1  0.500000  0.875000  0.000000  0  .  1
   Ti  Ti46  1  0.505596  0.618305  0.507794  0  .  1
   Ti  Ti47  1  0.003270  0.502537  0.499543  0  .  1
   Ti  Ti48  1  0.487498  0.747463  0.509689  0  .  1
   Ti  Ti49  1  0.500000  0.875000  0.500000  0  .  1
   Ti  Ti50  1  0.996730  0.002537  0.490311  0  .  1
 
