#\#CIF1.1
##########################################################################
#               Crystallographic Information Format file 
#               Produced by PyCifRW module
# 
#  This is a CIF file.  CIF has been adopted by the International
#  Union of Crystallography as the standard for data archiving and 
#  transmission.
#
#  For information on this file format, follow the CIF links at
#  http://www.iucr.org
##########################################################################

data_Mg11Ti25O60
_symmetry_space_group_name_H-M          'P 1'
_cell_length_a                          10.5154249536
_cell_length_b                          11.3406842005
_cell_length_c                          11.3883466966
_cell_angle_alpha                       80.451322012
_cell_angle_beta                        110.016702883
_cell_angle_gamma                       68.9295301807
_chemical_name_systematic               'Generated by pymatgen'
_symmetry_Int_Tables_number             1
_chemical_formula_structural            Mg11Ti25O60
_chemical_formula_sum                   'Mg11 Ti25 O60'
_cell_volume                            1124.20952332
_cell_formula_units_Z                   1
loop_
  _symmetry_equiv_pos_site_id
  _symmetry_equiv_pos_as_xyz
   1  'x, y, z'
 
loop_
  _atom_site_type_symbol
  _atom_site_label
  _atom_site_symmetry_multiplicity
  _atom_site_fract_x
  _atom_site_fract_y
  _atom_site_fract_z
  _atom_site_attached_hydrogens
  _atom_site_B_iso_or_equiv
  _atom_site_occupancy
   Mg  Mg1  1  0.929846  0.316438  0.249943  0  .  1
   Mg  Mg2  1  0.929956  0.646944  0.250043  0  .  1
   Mg  Mg3  1  0.428822  0.648087  0.250208  0  .  1
   Mg  Mg4  1  0.428255  0.315648  0.249803  0  .  1
   Mg  Mg5  1  0.428567  0.982719  0.249980  0  .  1
   Mg  Mg6  1  0.571209  0.017466  0.749283  0  .  1
   Mg  Mg7  1  0.571309  0.684371  0.750084  0  .  1
   Mg  Mg8  1  0.571163  0.352147  0.749199  0  .  1
   Mg  Mg9  1  0.071215  0.351347  0.749690  0  .  1
   Mg  Mg10  1  0.071838  0.017984  0.750941  0  .  1
   Mg  Mg11  1  0.072087  0.683711  0.750824  0  .  1
   Ti  Ti12  1  0.927318  0.982555  0.250062  0  .  1
   Ti  Ti13  1  0.849586  0.478019  0.433068  0  .  1
   Ti  Ti14  1  0.661675  0.271449  0.060996  0  .  1
   Ti  Ti15  1  0.851570  0.145022  0.439053  0  .  1
   Ti  Ti16  1  0.850797  0.807797  0.438783  0  .  1
   Ti  Ti17  1  0.667346  0.599782  0.066960  0  .  1
   Ti  Ti18  1  0.661940  0.933749  0.061200  0  .  1
   Ti  Ti19  1  0.829584  0.068457  0.929981  0  .  1
   Ti  Ti20  1  0.833702  0.400043  0.932861  0  .  1
   Ti  Ti21  1  0.650083  0.521408  0.566878  0  .  1
   Ti  Ti22  1  0.646954  0.190321  0.564719  0  .  1
   Ti  Ti23  1  0.834111  0.732896  0.933327  0  .  1
   Ti  Ti24  1  0.647655  0.857086  0.566751  0  .  1
   Ti  Ti25  1  0.349947  0.144702  0.432919  0  .  1
   Ti  Ti26  1  0.350017  0.477939  0.433005  0  .  1
   Ti  Ti27  1  0.354089  0.809277  0.434085  0  .  1
   Ti  Ti28  1  0.166955  0.266787  0.067089  0  .  1
   Ti  Ti29  1  0.167250  0.599824  0.067168  0  .  1
   Ti  Ti30  1  0.170056  0.931990  0.066200  0  .  1
   Ti  Ti31  1  0.330804  0.068383  0.933172  0  .  1
   Ti  Ti32  1  0.150581  0.189004  0.566649  0  .  1
   Ti  Ti33  1  0.334692  0.731766  0.934898  0  .  1
   Ti  Ti34  1  0.330656  0.400834  0.933284  0  .  1
   Ti  Ti35  1  0.149633  0.855022  0.570120  0  .  1
   Ti  Ti36  1  0.150643  0.521747  0.566793  0  .  1
   O  O37  1  0.843293  0.510603  0.249774  0  .  1
   O  O38  1  0.851147  0.167831  0.250089  0  .  1
   O  O39  1  0.851084  0.848102  0.249980  0  .  1
   O  O40  1  0.724571  0.080263  0.069196  0  .  1
   O  O41  1  0.718843  0.415051  0.065385  0  .  1
   O  O42  1  0.903456  0.292032  0.434531  0  .  1
   O  O43  1  0.905379  0.959695  0.430880  0  .  1
   O  O44  1  0.903452  0.627502  0.434550  0  .  1
   O  O45  1  0.718883  0.750610  0.065436  0  .  1
   O  O46  1  0.852761  0.446970  0.613137  0  .  1
   O  O47  1  0.989832  0.021710  0.889716  0  .  1
   O  O48  1  0.853206  0.113029  0.613607  0  .  1
   O  O49  1  0.989525  0.355600  0.886595  0  .  1
   O  O50  1  0.989347  0.689138  0.886498  0  .  1
   O  O51  1  0.853106  0.780487  0.613431  0  .  1
   O  O52  1  0.647200  0.553161  0.386741  0  .  1
   O  O53  1  0.510387  0.644499  0.113148  0  .  1
   O  O54  1  0.647830  0.219632  0.386693  0  .  1
   O  O55  1  0.511247  0.310870  0.113530  0  .  1
   O  O56  1  0.647737  0.886155  0.386573  0  .  1
   O  O57  1  0.511139  0.977215  0.113408  0  .  1
   O  O58  1  0.594811  0.041372  0.563141  0  .  1
   O  O59  1  0.781524  0.583270  0.937727  0  .  1
   O  O60  1  0.781657  0.249527  0.937108  0  .  1
   O  O61  1  0.781547  0.916953  0.937051  0  .  1
   O  O62  1  0.594799  0.374331  0.563135  0  .  1
   O  O63  1  0.591640  0.709322  0.561054  0  .  1
   O  O64  1  0.657245  0.155782  0.750791  0  .  1
   O  O65  1  0.656835  0.489642  0.749990  0  .  1
   O  O66  1  0.656700  0.822598  0.749476  0  .  1
   O  O67  1  0.343080  0.177316  0.250015  0  .  1
   O  O68  1  0.343002  0.510571  0.249940  0  .  1
   O  O69  1  0.341825  0.844476  0.249950  0  .  1
   O  O70  1  0.406122  0.291702  0.437490  0  .  1
   O  O71  1  0.218675  0.083002  0.062676  0  .  1
   O  O72  1  0.218206  0.750426  0.063228  0  .  1
   O  O73  1  0.405052  0.625782  0.436879  0  .  1
   O  O74  1  0.218540  0.416791  0.062353  0  .  1
   O  O75  1  0.405925  0.958323  0.437256  0  .  1
   O  O76  1  0.352764  0.113551  0.613469  0  .  1
   O  O77  1  0.489701  0.022584  0.886572  0  .  1
   O  O78  1  0.489369  0.689130  0.886484  0  .  1
   O  O79  1  0.350127  0.781629  0.610240  0  .  1
   O  O80  1  0.489794  0.355128  0.886667  0  .  1
   O  O81  1  0.352757  0.446820  0.613490  0  .  1
   O  O82  1  0.147402  0.219442  0.386839  0  .  1
   O  O83  1  0.010629  0.310799  0.113210  0  .  1
   O  O84  1  0.139382  0.890299  0.379356  0  .  1
   O  O85  1  0.010056  0.976549  0.120628  0  .  1
   O  O86  1  0.147429  0.553172  0.386858  0  .  1
   O  O87  1  0.010524  0.644579  0.113109  0  .  1
   O  O88  1  0.281973  0.249737  0.937147  0  .  1
   O  O89  1  0.094039  0.374816  0.562539  0  .  1
   O  O90  1  0.094225  0.041150  0.562714  0  .  1
   O  O91  1  0.281728  0.583518  0.936935  0  .  1
   O  O92  1  0.280514  0.916499  0.938747  0  .  1
   O  O93  1  0.094444  0.708376  0.562875  0  .  1
   O  O94  1  0.157263  0.155529  0.750552  0  .  1
   O  O95  1  0.156142  0.823395  0.749011  0  .  1
   O  O96  1  0.157212  0.489231  0.750374  0  .  1
 
