#\#CIF1.1
##########################################################################
#               Crystallographic Information Format file 
#               Produced by PyCifRW module
# 
#  This is a CIF file.  CIF has been adopted by the International
#  Union of Crystallography as the standard for data archiving and 
#  transmission.
#
#  For information on this file format, follow the CIF links at
#  http://www.iucr.org
##########################################################################

data_Mg11(Fe15O28)2
_symmetry_space_group_name_H-M          'P 1'
_cell_length_a                          6.02469962223
_cell_length_b                          6.02406842621
_cell_length_c                          42.18868909
_cell_angle_alpha                       59.92459385
_cell_angle_beta                        59.9318755318
_cell_angle_gamma                       59.9465408804
_chemical_name_systematic               'Generated by pymatgen'
_symmetry_Int_Tables_number             1
_chemical_formula_structural            Mg11(Fe15O28)2
_chemical_formula_sum                   'Mg11 Fe30 O56'
_cell_volume                            1081.08288152
_cell_formula_units_Z                   1
loop_
  _symmetry_equiv_pos_site_id
  _symmetry_equiv_pos_as_xyz
   1  'x, y, z'
 
loop_
  _atom_site_type_symbol
  _atom_site_label
  _atom_site_symmetry_multiplicity
  _atom_site_fract_x
  _atom_site_fract_y
  _atom_site_fract_z
  _atom_site_attached_hydrogens
  _atom_site_B_iso_or_equiv
  _atom_site_occupancy
   Mg  Mg1  1  0.000750  0.501076  0.213794  0  .  1
   Mg  Mg2  1  0.501168  0.000724  0.213771  0  .  1
   Mg  Mg3  1  0.999816  0.500461  0.500014  0  .  1
   Mg  Mg4  1  0.500465  0.999814  0.500013  0  .  1
   Mg  Mg5  1  0.500108  0.000437  0.357078  0  .  1
   Mg  Mg6  1  0.000412  0.500090  0.357080  0  .  1
   Mg  Mg7  1  0.999587  0.499725  0.643034  0  .  1
   Mg  Mg8  1  0.999959  0.499865  0.785742  0  .  1
   Mg  Mg9  1  0.499687  0.999536  0.643048  0  .  1
   Mg  Mg10  1  0.999665  0.496109  0.929873  0  .  1
   Mg  Mg11  1  0.500006  0.999384  0.785804  0  .  1
   Fe  Fe12  1  0.492991  0.494221  0.002663  0  .  1
   Fe  Fe13  1  0.127663  0.127657  0.161401  0  .  1
   Fe  Fe14  1  0.499310  0.500436  0.069648  0  .  1
   Fe  Fe15  1  0.499214  0.011736  0.069556  0  .  1
   Fe  Fe16  1  0.500198  0.500603  0.142608  0  .  1
   Fe  Fe17  1  0.132879  0.132919  0.302567  0  .  1
   Fe  Fe18  1  0.010238  0.500272  0.069629  0  .  1
   Fe  Fe19  1  0.501009  0.501001  0.214159  0  .  1
   Fe  Fe20  1  0.132802  0.132895  0.445487  0  .  1
   Fe  Fe21  1  0.875888  0.876136  0.124037  0  .  1
   Fe  Fe22  1  0.501574  0.501626  0.285370  0  .  1
   Fe  Fe23  1  0.499786  0.499790  0.357134  0  .  1
   Fe  Fe24  1  0.132375  0.132471  0.588544  0  .  1
   Fe  Fe25  1  0.499476  0.499478  0.428626  0  .  1
   Fe  Fe26  1  0.867727  0.867567  0.268770  0  .  1
   Fe  Fe27  1  0.500330  0.500315  0.499823  0  .  1
   Fe  Fe28  1  0.867815  0.867908  0.411407  0  .  1
   Fe  Fe29  1  0.499849  0.499816  0.571506  0  .  1
   Fe  Fe30  1  0.132130  0.132602  0.731345  0  .  1
   Fe  Fe31  1  0.499717  0.499756  0.643112  0  .  1
   Fe  Fe32  1  0.137933  0.125311  0.873603  0  .  1
   Fe  Fe33  1  0.499778  0.499520  0.714438  0  .  1
   Fe  Fe34  1  0.867263  0.867170  0.554495  0  .  1
   Fe  Fe35  1  0.499565  0.499672  0.785694  0  .  1
   Fe  Fe36  1  0.867095  0.867075  0.697459  0  .  1
   Fe  Fe37  1  0.500023  0.500164  0.857194  0  .  1
   Fe  Fe38  1  0.494576  0.492608  0.930120  0  .  1
   Fe  Fe39  1  0.866373  0.867511  0.840603  0  .  1
   Fe  Fe40  1  0.494316  0.002625  0.930286  0  .  1
   Fe  Fe41  1  0.864818  0.878332  0.982671  0  .  1
   O  O42  1  0.257529  0.259693  0.039008  0  .  1
   O  O43  1  0.252924  0.252837  0.105974  0  .  1
   O  O44  1  0.257464  0.708170  0.039162  0  .  1
   O  O45  1  0.706620  0.260190  0.038915  0  .  1
   O  O46  1  0.271424  0.741391  0.106776  0  .  1
   O  O47  1  0.261865  0.262027  0.178312  0  .  1
   O  O48  1  0.740825  0.271631  0.106789  0  .  1
   O  O49  1  0.739807  0.741653  0.039374  0  .  1
   O  O50  1  0.260818  0.260778  0.247081  0  .  1
   O  O51  1  0.263227  0.731559  0.179030  0  .  1
   O  O52  1  0.731438  0.263391  0.179005  0  .  1
   O  O53  1  0.740297  0.741242  0.106386  0  .  1
   O  O54  1  0.268929  0.739412  0.249213  0  .  1
   O  O55  1  0.262050  0.262179  0.321357  0  .  1
   O  O56  1  0.739446  0.268727  0.249231  0  .  1
   O  O57  1  0.742508  0.742327  0.180159  0  .  1
   O  O58  1  0.260323  0.260411  0.389919  0  .  1
   O  O59  1  0.262161  0.733185  0.321786  0  .  1
   O  O60  1  0.733059  0.262139  0.321796  0  .  1
   O  O61  1  0.740507  0.740430  0.249367  0  .  1
   O  O62  1  0.267521  0.738996  0.392169  0  .  1
   O  O63  1  0.261056  0.261167  0.464342  0  .  1
   O  O64  1  0.738923  0.267398  0.392183  0  .  1
   O  O65  1  0.740235  0.740173  0.324146  0  .  1
   O  O66  1  0.260773  0.260829  0.532826  0  .  1
   O  O67  1  0.262403  0.732511  0.464453  0  .  1
   O  O68  1  0.739082  0.738969  0.392542  0  .  1
   O  O69  1  0.732385  0.262386  0.464466  0  .  1
   O  O70  1  0.268576  0.738059  0.535135  0  .  1
   O  O71  1  0.260854  0.260930  0.607283  0  .  1
   O  O72  1  0.738047  0.268446  0.535151  0  .  1
   O  O73  1  0.740202  0.740131  0.466811  0  .  1
   O  O74  1  0.260499  0.260598  0.675781  0  .  1
   O  O75  1  0.261928  0.731786  0.607663  0  .  1
   O  O76  1  0.731655  0.261890  0.607681  0  .  1
   O  O77  1  0.739237  0.739131  0.535600  0  .  1
   O  O78  1  0.268261  0.738004  0.678141  0  .  1
   O  O79  1  0.260921  0.260796  0.750078  0  .  1
   O  O80  1  0.738118  0.268161  0.678132  0  .  1
   O  O81  1  0.739334  0.739279  0.610069  0  .  1
   O  O82  1  0.261646  0.731870  0.750419  0  .  1
   O  O83  1  0.262123  0.260464  0.818127  0  .  1
   O  O84  1  0.739084  0.738919  0.678561  0  .  1
   O  O85  1  0.731574  0.261783  0.750429  0  .  1
   O  O86  1  0.267518  0.736516  0.821124  0  .  1
   O  O87  1  0.264413  0.254949  0.892818  0  .  1
   O  O88  1  0.738286  0.267845  0.820787  0  .  1
   O  O89  1  0.280812  0.263705  0.956203  0  .  1
   O  O90  1  0.738896  0.739544  0.752923  0  .  1
   O  O91  1  0.263823  0.732405  0.892410  0  .  1
   O  O92  1  0.739899  0.737989  0.821614  0  .  1
   O  O93  1  0.737911  0.255701  0.892659  0  .  1
   O  O94  1  0.265829  0.745705  0.963277  0  .  1
   O  O95  1  0.738125  0.270199  0.963887  0  .  1
   O  O96  1  0.737504  0.743432  0.896406  0  .  1
   O  O97  1  0.737992  0.744551  0.964000  0  .  1
 
