#\#CIF1.1
##########################################################################
#               Crystallographic Information Format file 
#               Produced by PyCifRW module
# 
#  This is a CIF file.  CIF has been adopted by the International
#  Union of Crystallography as the standard for data archiving and 
#  transmission.
#
#  For information on this file format, follow the CIF links at
#  http://www.iucr.org
##########################################################################

data_Mg2Co7O12
_symmetry_space_group_name_H-M          'P 1'
_cell_length_a                          5.80801793502
_cell_length_b                          5.8221111768
_cell_length_c                          14.1597217801
_cell_angle_alpha                       89.7984618771
_cell_angle_beta                        89.8428011995
_cell_angle_gamma                       60.0734670626
_chemical_name_systematic               'Generated by pymatgen'
_symmetry_Int_Tables_number             1
_chemical_formula_structural            Mg2Co7O12
_chemical_formula_sum                   'Mg4 Co14 O24'
_cell_volume                            414.965373822
_cell_formula_units_Z                   2
loop_
  _symmetry_equiv_pos_site_id
  _symmetry_equiv_pos_as_xyz
   1  'x, y, z'
 
loop_
  _atom_site_type_symbol
  _atom_site_label
  _atom_site_symmetry_multiplicity
  _atom_site_fract_x
  _atom_site_fract_y
  _atom_site_fract_z
  _atom_site_attached_hydrogens
  _atom_site_B_iso_or_equiv
  _atom_site_occupancy
   Mg  Mg1  1  0.327752  0.338761  0.041979  0  .  1
   Mg  Mg2  1  0.668941  0.165121  0.209734  0  .  1
   Mg  Mg3  1  0.831855  0.335308  0.541163  0  .  1
   Mg  Mg4  1  0.501740  0.999306  0.874382  0  .  1
   Co  Co5  1  0.660887  0.667406  0.085711  0  .  1
   Co  Co6  1  0.164467  0.670482  0.209951  0  .  1
   Co  Co7  1  0.672583  0.665506  0.333133  0  .  1
   Co  Co8  1  0.000446  0.005158  0.997918  0  .  1
   Co  Co9  1  0.830661  0.833373  0.542208  0  .  1
   Co  Co10  1  0.336355  0.832401  0.542327  0  .  1
   Co  Co11  1  0.164125  0.166011  0.209191  0  .  1
   Co  Co12  1  0.334431  0.327102  0.416535  0  .  1
   Co  Co13  1  0.667212  0.665614  0.706850  0  .  1
   Co  Co14  1  0.006066  0.994477  0.374302  0  .  1
   Co  Co15  1  0.328268  0.342921  0.666889  0  .  1
   Co  Co16  1  0.999634  0.499592  0.873428  0  .  1
   Co  Co17  1  0.501112  0.499384  0.874795  0  .  1
   Co  Co18  1  0.006204  0.989548  0.749362  0  .  1
   O  O19  1  0.298978  0.850283  0.287436  0  .  1
   O  O20  1  0.866868  0.838615  0.292200  0  .  1
   O  O21  1  0.014442  0.494185  0.136215  0  .  1
   O  O22  1  0.477798  0.504932  0.131358  0  .  1
   O  O23  1  0.154434  0.692629  0.463466  0  .  1
   O  O24  1  0.480420  0.015746  0.129950  0  .  1
   O  O25  1  0.316422  0.341132  0.282956  0  .  1
   O  O26  1  0.015732  0.993975  0.133531  0  .  1
   O  O27  1  0.516051  0.966980  0.620281  0  .  1
   O  O28  1  0.864954  0.296120  0.292944  0  .  1
   O  O29  1  0.656040  0.685826  0.470465  0  .  1
   O  O30  1  0.963786  0.530333  0.622633  0  .  1
   O  O31  1  0.505498  0.529829  0.623069  0  .  1
   O  O32  1  0.830842  0.805739  0.790525  0  .  1
   O  O33  1  0.363675  0.804534  0.790727  0  .  1
   O  O34  1  0.693028  0.140961  0.457337  0  .  1
   O  O35  1  0.166370  0.138262  0.458890  0  .  1
   O  O36  1  0.819342  0.361300  0.794008  0  .  1
   O  O37  1  0.672924  0.651581  0.949768  0  .  1
   O  O38  1  0.007888  0.982778  0.615710  0  .  1
   O  O39  1  0.172989  0.652011  0.947349  0  .  1
   O  O40  1  0.326364  0.348637  0.803476  0  .  1
   O  O41  1  0.651678  0.186680  0.953705  0  .  1
   O  O42  1  0.160738  0.189458  0.952145  0  .  1
 
