#\#CIF1.1
##########################################################################
#               Crystallographic Information Format file 
#               Produced by PyCifRW module
# 
#  This is a CIF file.  CIF has been adopted by the International
#  Union of Crystallography as the standard for data archiving and 
#  transmission.
#
#  For information on this file format, follow the CIF links at
#  http://www.iucr.org
##########################################################################

data_Mg2Fe2O5
_symmetry_space_group_name_H-M          'P 1'
_cell_length_a                          6.17100140268
_cell_length_b                          5.99269459555
_cell_length_c                          30.0324552189
_cell_angle_alpha                       59.8396991933
_cell_angle_beta                        60.5619655257
_cell_angle_gamma                       60.6984061004
_chemical_name_systematic               'Generated by pymatgen'
_symmetry_Int_Tables_number             1
_chemical_formula_structural            Mg2Fe2O5
_chemical_formula_sum                   'Mg16 Fe16 O40'
_cell_volume                            791.745312891
_cell_formula_units_Z                   8
loop_
  _symmetry_equiv_pos_site_id
  _symmetry_equiv_pos_as_xyz
   1  'x, y, z'
 
loop_
  _atom_site_type_symbol
  _atom_site_label
  _atom_site_symmetry_multiplicity
  _atom_site_fract_x
  _atom_site_fract_y
  _atom_site_fract_z
  _atom_site_attached_hydrogens
  _atom_site_B_iso_or_equiv
  _atom_site_occupancy
   Mg  Mg1  1  0.986159  0.986938  0.004050  0  .  1
   Mg  Mg2  1  0.121926  0.625725  0.125587  0  .  1
   Mg  Mg3  1  0.624192  0.122788  0.125890  0  .  1
   Mg  Mg4  1  0.123907  0.624347  0.325057  0  .  1
   Mg  Mg5  1  0.627506  0.122816  0.324617  0  .  1
   Mg  Mg6  1  0.139040  0.620315  0.523445  0  .  1
   Mg  Mg7  1  0.652903  0.124840  0.518003  0  .  1
   Mg  Mg8  1  0.626625  0.627311  0.422427  0  .  1
   Mg  Mg9  1  0.633952  0.120905  0.624326  0  .  1
   Mg  Mg10  1  0.124477  0.625985  0.724744  0  .  1
   Mg  Mg11  1  0.625733  0.124444  0.725199  0  .  1
   Mg  Mg12  1  0.631658  0.623237  0.623435  0  .  1
   Mg  Mg13  1  0.107131  0.632340  0.926402  0  .  1
   Mg  Mg14  1  0.617500  0.127702  0.826343  0  .  1
   Mg  Mg15  1  0.597241  0.125817  0.931825  0  .  1
   Mg  Mg16  1  0.616523  0.627675  0.827147  0  .  1
   Fe  Fe17  1  0.242231  0.255723  0.052397  0  .  1
   Fe  Fe18  1  0.253187  0.260252  0.248734  0  .  1
   Fe  Fe19  1  0.629203  0.627443  0.025376  0  .  1
   Fe  Fe20  1  0.626842  0.628383  0.125884  0  .  1
   Fe  Fe21  1  0.998166  0.989444  0.201747  0  .  1
   Fe  Fe22  1  0.260824  0.260337  0.447757  0  .  1
   Fe  Fe23  1  0.100241  0.976493  0.585372  0  .  1
   Fe  Fe24  1  0.625788  0.625632  0.225351  0  .  1
   Fe  Fe25  1  0.627962  0.624675  0.324670  0  .  1
   Fe  Fe26  1  0.011446  0.996706  0.395306  0  .  1
   Fe  Fe27  1  0.168507  0.289913  0.655239  0  .  1
   Fe  Fe28  1  0.659639  0.634428  0.515869  0  .  1
   Fe  Fe29  1  0.152034  0.278411  0.861967  0  .  1
   Fe  Fe30  1  0.626270  0.625064  0.725018  0  .  1
   Fe  Fe31  1  0.082016  0.961955  0.793663  0  .  1
   Fe  Fe32  1  0.592831  0.616812  0.934131  0  .  1
   O  O33  1  0.386265  0.386835  0.074367  0  .  1
   O  O34  1  0.385369  0.387727  0.170771  0  .  1
   O  O35  1  0.387163  0.858685  0.075092  0  .  1
   O  O36  1  0.854116  0.387115  0.075336  0  .  1
   O  O37  1  0.386587  0.385996  0.274825  0  .  1
   O  O38  1  0.391068  0.863743  0.175259  0  .  1
   O  O39  1  0.862444  0.389805  0.175356  0  .  1
   O  O40  1  0.385954  0.382415  0.371158  0  .  1
   O  O41  1  0.854852  0.855699  0.083372  0  .  1
   O  O42  1  0.389092  0.856633  0.275415  0  .  1
   O  O43  1  0.856733  0.387811  0.275186  0  .  1
   O  O44  1  0.865269  0.865478  0.175502  0  .  1
   O  O45  1  0.382706  0.370214  0.478812  0  .  1
   O  O46  1  0.394257  0.863910  0.372823  0  .  1
   O  O47  1  0.378344  0.367000  0.579301  0  .  1
   O  O48  1  0.864932  0.389019  0.373199  0  .  1
   O  O49  1  0.865593  0.862374  0.279363  0  .  1
   O  O50  1  0.384660  0.854170  0.480244  0  .  1
   O  O51  1  0.865583  0.378941  0.476848  0  .  1
   O  O52  1  0.868789  0.867003  0.373990  0  .  1
   O  O53  1  0.376104  0.368589  0.675324  0  .  1
   O  O54  1  0.457757  0.845327  0.569039  0  .  1
   O  O55  1  0.878818  0.357026  0.577276  0  .  1
   O  O56  1  0.374488  0.380575  0.776433  0  .  1
   O  O57  1  0.889405  0.855397  0.477401  0  .  1
   O  O58  1  0.377137  0.881649  0.676231  0  .  1
   O  O59  1  0.806467  0.398666  0.679700  0  .  1
   O  O60  1  0.877595  0.870901  0.577378  0  .  1
   O  O61  1  0.370619  0.378915  0.872743  0  .  1
   O  O62  1  0.444298  0.850370  0.770382  0  .  1
   O  O63  1  0.872909  0.368654  0.773774  0  .  1
   O  O64  1  0.358302  0.395543  0.972446  0  .  1
   O  O65  1  0.369649  0.895923  0.872670  0  .  1
   O  O66  1  0.875933  0.869688  0.673389  0  .  1
   O  O67  1  0.794481  0.403038  0.881272  0  .  1
   O  O68  1  0.874008  0.880657  0.774764  0  .  1
   O  O69  1  0.393114  0.864562  0.973776  0  .  1
   O  O70  1  0.854785  0.405685  0.970938  0  .  1
   O  O71  1  0.876416  0.884379  0.869312  0  .  1
   O  O72  1  0.854276  0.869028  0.972556  0  .  1
 
