#\#CIF1.1
##########################################################################
#               Crystallographic Information Format file 
#               Produced by PyCifRW module
# 
#  This is a CIF file.  CIF has been adopted by the International
#  Union of Crystallography as the standard for data archiving and 
#  transmission.
#
#  For information on this file format, follow the CIF links at
#  http://www.iucr.org
##########################################################################

data_Mg2Ti7O15
_symmetry_space_group_name_H-M          'P 1'
_cell_length_a                          5.25835159762
_cell_length_b                          10.7170674434
_cell_length_c                          10.08269589
_cell_angle_alpha                       90.0
_cell_angle_beta                        90.0
_cell_angle_gamma                       96.0227426643
_chemical_name_systematic               'Generated by pymatgen'
_symmetry_Int_Tables_number             1
_chemical_formula_structural            Mg2Ti7O15
_chemical_formula_sum                   'Mg4 Ti14 O30'
_cell_volume                            565.065054184
_cell_formula_units_Z                   2
loop_
  _symmetry_equiv_pos_site_id
  _symmetry_equiv_pos_as_xyz
   1  'x, y, z'
 
loop_
  _atom_site_type_symbol
  _atom_site_label
  _atom_site_symmetry_multiplicity
  _atom_site_fract_x
  _atom_site_fract_y
  _atom_site_fract_z
  _atom_site_attached_hydrogens
  _atom_site_B_iso_or_equiv
  _atom_site_occupancy
   Mg  Mg1  1  0.324594  0.935581  0.750000  0  .  1
   Mg  Mg2  1  0.342073  0.731086  0.250000  0  .  1
   Mg  Mg3  1  0.008087  0.398348  0.250000  0  .  1
   Mg  Mg4  1  0.658580  0.268319  0.750000  0  .  1
   Ti  Ti5  1  0.226864  0.952997  0.061514  0  .  1
   Ti  Ti6  1  0.226864  0.952997  0.438486  0  .  1
   Ti  Ti7  1  0.439803  0.713670  0.561514  0  .  1
   Ti  Ti8  1  0.439803  0.713670  0.938486  0  .  1
   Ti  Ti9  1  0.108151  0.376531  0.562453  0  .  1
   Ti  Ti10  1  0.108151  0.376531  0.937547  0  .  1
   Ti  Ti11  1  0.894369  0.620206  0.068300  0  .  1
   Ti  Ti12  1  0.894369  0.620206  0.431700  0  .  1
   Ti  Ti13  1  0.558515  0.290136  0.062453  0  .  1
   Ti  Ti14  1  0.558515  0.290136  0.437547  0  .  1
   Ti  Ti15  1  0.991484  0.601782  0.750000  0  .  1
   Ti  Ti16  1  0.675182  0.064884  0.250000  0  .  1
   Ti  Ti17  1  0.772298  0.046461  0.931700  0  .  1
   Ti  Ti18  1  0.772298  0.046461  0.568300  0  .  1
   O  O19  1  0.073828  0.985371  0.888259  0  .  1
   O  O20  1  0.073828  0.985371  0.611741  0  .  1
   O  O21  1  0.147897  0.770484  0.434224  0  .  1
   O  O22  1  0.147897  0.770484  0.065776  0  .  1
   O  O23  1  0.038909  0.592264  0.250000  0  .  1
   O  O24  1  0.381576  0.929791  0.250000  0  .  1
   O  O25  1  0.285091  0.736876  0.750000  0  .  1
   O  O26  1  0.518770  0.896182  0.934224  0  .  1
   O  O27  1  0.182647  0.562701  0.569023  0  .  1
   O  O28  1  0.182647  0.562701  0.930977  0  .  1
   O  O29  1  0.518770  0.896182  0.565776  0  .  1
   O  O30  1  0.592838  0.681295  0.388259  0  .  1
   O  O31  1  0.258496  0.348762  0.386360  0  .  1
   O  O32  1  0.592838  0.681295  0.111741  0  .  1
   O  O33  1  0.258496  0.348762  0.113640  0  .  1
   O  O34  1  0.748155  0.650291  0.880894  0  .  1
   O  O35  1  0.748155  0.650291  0.619106  0  .  1
   O  O36  1  0.408171  0.317906  0.613640  0  .  1
   O  O37  1  0.408171  0.317906  0.886360  0  .  1
   O  O38  1  0.811459  0.436750  0.066543  0  .  1
   O  O39  1  0.484019  0.103966  0.430977  0  .  1
   O  O40  1  0.811459  0.436750  0.433457  0  .  1
   O  O41  1  0.484019  0.103966  0.069023  0  .  1
   O  O42  1  0.707843  0.251869  0.250000  0  .  1
   O  O43  1  0.958824  0.414797  0.750000  0  .  1
   O  O44  1  0.627757  0.074403  0.750000  0  .  1
   O  O45  1  0.855208  0.229916  0.933457  0  .  1
   O  O46  1  0.855208  0.229916  0.566543  0  .  1
   O  O47  1  0.918512  0.016376  0.380894  0  .  1
   O  O48  1  0.918512  0.016376  0.119106  0  .  1
 
