#\#CIF1.1
##########################################################################
#               Crystallographic Information Format file 
#               Produced by PyCifRW module
# 
#  This is a CIF file.  CIF has been adopted by the International
#  Union of Crystallography as the standard for data archiving and 
#  transmission.
#
#  For information on this file format, follow the CIF links at
#  http://www.iucr.org
##########################################################################

data_Mg2TiO
_symmetry_space_group_name_H-M          'P 1'
_cell_length_a                          6.12230819971
_cell_length_b                          6.22061550364
_cell_length_c                          25.2454964433
_cell_angle_alpha                       60.0014592288
_cell_angle_beta                        59.789595901
_cell_angle_gamma                       57.4501831274
_chemical_name_systematic               'Generated by pymatgen'
_symmetry_Int_Tables_number             1
_chemical_formula_structural            Mg2TiO
_chemical_formula_sum                   'Mg16 Ti8 O8'
_cell_volume                            664.78010082
_cell_formula_units_Z                   8
loop_
  _symmetry_equiv_pos_site_id
  _symmetry_equiv_pos_as_xyz
   1  'x, y, z'
 
loop_
  _atom_site_type_symbol
  _atom_site_label
  _atom_site_symmetry_multiplicity
  _atom_site_fract_x
  _atom_site_fract_y
  _atom_site_fract_z
  _atom_site_attached_hydrogens
  _atom_site_B_iso_or_equiv
  _atom_site_occupancy
   Mg  Mg1  1  0.125479  0.626982  0.156162  0  .  1
   Mg  Mg2  1  0.624924  0.120314  0.157685  0  .  1
   Mg  Mg3  1  0.625000  0.625000  0.031250  0  .  1
   Mg  Mg4  1  0.625927  0.624410  0.154671  0  .  1
   Mg  Mg5  1  0.125090  0.624954  0.406120  0  .  1
   Mg  Mg6  1  0.625311  0.125205  0.405991  0  .  1
   Mg  Mg7  1  0.625447  0.624131  0.281420  0  .  1
   Mg  Mg8  1  0.625396  0.624467  0.406360  0  .  1
   Mg  Mg9  1  0.124910  0.625046  0.656380  0  .  1
   Mg  Mg10  1  0.625000  0.625000  0.531250  0  .  1
   Mg  Mg11  1  0.624689  0.124795  0.656509  0  .  1
   Mg  Mg12  1  0.624604  0.625533  0.656140  0  .  1
   Mg  Mg13  1  0.124521  0.623018  0.906338  0  .  1
   Mg  Mg14  1  0.625076  0.129686  0.904815  0  .  1
   Mg  Mg15  1  0.624553  0.625869  0.781080  0  .  1
   Mg  Mg16  1  0.624073  0.625590  0.907829  0  .  1
   Ti  Ti17  1  0.125000  0.125000  0.031250  0  .  1
   Ti  Ti18  1  0.625000  0.125000  0.031250  0  .  1
   Ti  Ti19  1  0.122713  0.623932  0.282519  0  .  1
   Ti  Ti20  1  0.625410  0.124710  0.281506  0  .  1
   Ti  Ti21  1  0.125000  0.625000  0.531250  0  .  1
   Ti  Ti22  1  0.625000  0.125000  0.531250  0  .  1
   Ti  Ti23  1  0.127287  0.626068  0.779981  0  .  1
   Ti  Ti24  1  0.624590  0.125290  0.780994  0  .  1
   O  O25  1  0.239881  0.247847  0.063817  0  .  1
   O  O26  1  0.010655  0.999583  0.247419  0  .  1
   O  O27  1  0.242454  0.246930  0.313973  0  .  1
   O  O28  1  0.008972  0.002039  0.498769  0  .  1
   O  O29  1  0.241028  0.247961  0.563731  0  .  1
   O  O30  1  0.239345  0.250417  0.815081  0  .  1
   O  O31  1  0.007546  0.003070  0.748527  0  .  1
   O  O32  1  0.010119  0.002153  0.998683  0  .  1
 
