#\#CIF1.1
##########################################################################
#               Crystallographic Information Format file 
#               Produced by PyCifRW module
# 
#  This is a CIF file.  CIF has been adopted by the International
#  Union of Crystallography as the standard for data archiving and 
#  transmission.
#
#  For information on this file format, follow the CIF links at
#  http://www.iucr.org
##########################################################################

data_Mg3Fe3O8
_symmetry_space_group_name_H-M          'P 1'
_cell_length_a                          6.00920927422
_cell_length_b                          6.00920927422
_cell_length_c                          6.00920927422
_cell_angle_alpha                       59.7811511792
_cell_angle_beta                        59.7811511792
_cell_angle_gamma                       59.7811511792
_chemical_name_systematic               'Generated by pymatgen'
_symmetry_Int_Tables_number             1
_chemical_formula_structural            Mg3Fe3O8
_chemical_formula_sum                   'Mg3 Fe3 O8'
_cell_volume                            152.677049523
_cell_formula_units_Z                   1
loop_
  _symmetry_equiv_pos_site_id
  _symmetry_equiv_pos_as_xyz
   1  'x, y, z'
 
loop_
  _atom_site_type_symbol
  _atom_site_label
  _atom_site_symmetry_multiplicity
  _atom_site_fract_x
  _atom_site_fract_y
  _atom_site_fract_z
  _atom_site_attached_hydrogens
  _atom_site_B_iso_or_equiv
  _atom_site_occupancy
   Mg  Mg1  1  0.625000  0.125000  0.625000  0  .  1
   Mg  Mg2  1  0.625000  0.625000  0.125000  0  .  1
   Mg  Mg3  1  0.125000  0.625000  0.625000  0  .  1
   Fe  Fe4  1  0.993182  0.993182  0.993182  0  .  1
   Fe  Fe5  1  0.256818  0.256818  0.256818  0  .  1
   Fe  Fe6  1  0.625000  0.625000  0.625000  0  .  1
   O  O7  1  0.858237  0.387130  0.387130  0  .  1
   O  O8  1  0.382756  0.382756  0.382756  0  .  1
   O  O9  1  0.387130  0.858237  0.387130  0  .  1
   O  O10  1  0.387130  0.387130  0.858237  0  .  1
   O  O11  1  0.862870  0.391763  0.862870  0  .  1
   O  O12  1  0.862870  0.862870  0.391763  0  .  1
   O  O13  1  0.391763  0.862870  0.862870  0  .  1
   O  O14  1  0.867244  0.867244  0.867244  0  .  1
 
