#\#CIF1.1
##########################################################################
#               Crystallographic Information Format file 
#               Produced by PyCifRW module
# 
#  This is a CIF file.  CIF has been adopted by the International
#  Union of Crystallography as the standard for data archiving and 
#  transmission.
#
#  For information on this file format, follow the CIF links at
#  http://www.iucr.org
##########################################################################

data_Mg3Mn4O7
_symmetry_space_group_name_H-M          'P 1'
_cell_length_a                          3.12000821877
_cell_length_b                          11.2747429617
_cell_length_c                          4.41198867161
_cell_angle_alpha                       78.7144532515
_cell_angle_beta                        90.000593459
_cell_angle_gamma                       97.9803390103
_chemical_name_systematic               'Generated by pymatgen'
_symmetry_Int_Tables_number             1
_chemical_formula_structural            Mg3Mn4O7
_chemical_formula_sum                   'Mg3 Mn4 O7'
_cell_volume                            150.667935537
_cell_formula_units_Z                   1
loop_
  _symmetry_equiv_pos_site_id
  _symmetry_equiv_pos_as_xyz
   1  'x, y, z'
 
loop_
  _atom_site_type_symbol
  _atom_site_label
  _atom_site_symmetry_multiplicity
  _atom_site_fract_x
  _atom_site_fract_y
  _atom_site_fract_z
  _atom_site_attached_hydrogens
  _atom_site_B_iso_or_equiv
  _atom_site_occupancy
   Mg  Mg1  1  0.715207  0.429209  0.286589  0  .  1
   Mg  Mg2  1  0.574348  0.146969  0.429440  0  .  1
   Mg  Mg3  1  0.859963  0.711499  0.145131  0  .  1
   Mn  Mn4  1  0.002239  0.000827  0.002449  0  .  1
   Mn  Mn5  1  0.144010  0.286963  0.858654  0  .  1
   Mn  Mn6  1  0.287909  0.571448  0.715083  0  .  1
   Mn  Mn7  1  0.433183  0.857639  0.573097  0  .  1
   O  O8  1  0.145039  0.288899  0.357702  0  .  1
   O  O9  1  0.286595  0.569512  0.216057  0  .  1
   O  O10  1  0.428410  0.847303  0.078114  0  .  1
   O  O11  1  0.007323  0.011161  0.497450  0  .  1
   O  O12  1  0.715597  0.429200  0.786737  0  .  1
   O  O13  1  0.572675  0.143563  0.931226  0  .  1
   O  O14  1  0.861340  0.714882  0.643630  0  .  1
 
