#\#CIF1.1
##########################################################################
#               Crystallographic Information Format file 
#               Produced by PyCifRW module
# 
#  This is a CIF file.  CIF has been adopted by the International
#  Union of Crystallography as the standard for data archiving and 
#  transmission.
#
#  For information on this file format, follow the CIF links at
#  http://www.iucr.org
##########################################################################

data_Mg3Ti9O20
_symmetry_space_group_name_H-M          'P 1'
_cell_length_a                          5.26478568337
_cell_length_b                          7.50694330767
_cell_length_c                          10.8039517028
_cell_angle_alpha                       74.6636092922
_cell_angle_beta                        82.7091417203
_cell_angle_gamma                       109.690950918
_chemical_name_systematic               'Generated by pymatgen'
_symmetry_Int_Tables_number             1
_chemical_formula_structural            Mg3Ti9O20
_chemical_formula_sum                   'Mg3 Ti9 O20'
_cell_volume                            376.580338809
_cell_formula_units_Z                   1
loop_
  _symmetry_equiv_pos_site_id
  _symmetry_equiv_pos_as_xyz
   1  'x, y, z'
 
loop_
  _atom_site_type_symbol
  _atom_site_label
  _atom_site_symmetry_multiplicity
  _atom_site_fract_x
  _atom_site_fract_y
  _atom_site_fract_z
  _atom_site_attached_hydrogens
  _atom_site_B_iso_or_equiv
  _atom_site_occupancy
   Mg  Mg1  1  0.583424  0.973395  0.248945  0  .  1
   Mg  Mg2  1  0.081722  0.472106  0.250392  0  .  1
   Mg  Mg3  1  0.918054  0.529870  0.748905  0  .  1
   Ti  Ti4  1  0.172378  0.894990  0.068776  0  .  1
   Ti  Ti5  1  0.330359  0.596328  0.935937  0  .  1
   Ti  Ti6  1  0.519588  0.785136  0.562699  0  .  1
   Ti  Ti7  1  0.018846  0.290353  0.562303  0  .  1
   Ti  Ti8  1  0.667840  0.400974  0.065083  0  .  1
   Ti  Ti9  1  0.490545  0.215828  0.430196  0  .  1
   Ti  Ti10  1  0.985442  0.716606  0.434339  0  .  1
   Ti  Ti11  1  0.416865  0.029375  0.749408  0  .  1
   Ti  Ti12  1  0.830916  0.101211  0.937422  0  .  1
   O  O13  1  0.313094  0.938964  0.435511  0  .  1
   O  O14  1  0.206911  0.765341  0.248248  0  .  1
   O  O15  1  0.293790  0.750853  0.749921  0  .  1
   O  O16  1  0.006396  0.378877  0.929051  0  .  1
   O  O17  1  0.186815  0.560577  0.569616  0  .  1
   O  O18  1  0.500563  0.878875  0.931851  0  .  1
   O  O19  1  0.372179  0.464130  0.113393  0  .  1
   O  O20  1  0.239854  0.329136  0.389719  0  .  1
   O  O21  1  0.737160  0.828200  0.386188  0  .  1
   O  O22  1  0.881914  0.968669  0.109741  0  .  1
   O  O23  1  0.763744  0.673953  0.612995  0  .  1
   O  O24  1  0.266815  0.168771  0.619697  0  .  1
   O  O25  1  0.134716  0.035742  0.879308  0  .  1
   O  O26  1  0.624066  0.533477  0.886429  0  .  1
   O  O27  1  0.997252  0.623976  0.062956  0  .  1
   O  O28  1  0.505164  0.124534  0.062590  0  .  1
   O  O29  1  0.816128  0.437992  0.437678  0  .  1
   O  O30  1  0.704660  0.265502  0.250664  0  .  1
   O  O31  1  0.776911  0.229046  0.749374  0  .  1
   O  O32  1  0.682385  0.061872  0.567848  0  .  1
 
