#\#CIF1.1
##########################################################################
#               Crystallographic Information Format file 
#               Produced by PyCifRW module
# 
#  This is a CIF file.  CIF has been adopted by the International
#  Union of Crystallography as the standard for data archiving and 
#  transmission.
#
#  For information on this file format, follow the CIF links at
#  http://www.iucr.org
##########################################################################

data_Mg3V2O6
_symmetry_space_group_name_H-M          'P 1'
_cell_length_a                          6.10802612853
_cell_length_b                          5.94293056558
_cell_length_c                          18.201414832
_cell_angle_alpha                       61.1309503701
_cell_angle_beta                        61.6754440286
_cell_angle_gamma                       60.5820899584
_chemical_name_systematic               'Generated by pymatgen'
_symmetry_Int_Tables_number             1
_chemical_formula_structural            Mg3V2O6
_chemical_formula_sum                   'Mg12 V8 O24'
_cell_volume                            478.979293446
_cell_formula_units_Z                   4
loop_
  _symmetry_equiv_pos_site_id
  _symmetry_equiv_pos_as_xyz
   1  'x, y, z'
 
loop_
  _atom_site_type_symbol
  _atom_site_label
  _atom_site_symmetry_multiplicity
  _atom_site_fract_x
  _atom_site_fract_y
  _atom_site_fract_z
  _atom_site_attached_hydrogens
  _atom_site_B_iso_or_equiv
  _atom_site_occupancy
   Mg  Mg1  1  0.993029  0.040618  0.140234  0  .  1
   Mg  Mg2  1  0.429621  0.043073  0.991285  0  .  1
   Mg  Mg3  1  0.116500  0.122876  0.375754  0  .  1
   Mg  Mg4  1  0.486451  0.495851  0.171623  0  .  1
   Mg  Mg5  1  0.982906  0.049229  0.805121  0  .  1
   Mg  Mg6  1  0.431882  0.039574  0.664314  0  .  1
   Mg  Mg7  1  0.507841  0.503615  0.496747  0  .  1
   Mg  Mg8  1  0.871624  0.852072  0.311857  0  .  1
   Mg  Mg9  1  0.497170  0.511428  0.829448  0  .  1
   Mg  Mg10  1  0.943144  0.834581  0.630853  0  .  1
   Mg  Mg11  1  0.498913  0.004345  0.829133  0  .  1
   Mg  Mg12  1  0.949184  0.814346  0.980800  0  .  1
   V  V13  1  0.482810  0.001514  0.171641  0  .  1
   V  V14  1  0.510841  0.001689  0.498308  0  .  1
   V  V15  1  0.494132  0.492594  0.334976  0  .  1
   V  V16  1  0.996789  0.493747  0.169481  0  .  1
   V  V17  1  0.513919  0.492229  0.668120  0  .  1
   V  V18  1  0.006728  0.491930  0.505231  0  .  1
   V  V19  1  0.518414  0.489313  0.999104  0  .  1
   V  V20  1  0.006396  0.498206  0.832974  0  .  1
   O  O21  1  0.247064  0.252964  0.083843  0  .  1
   O  O22  1  0.256077  0.741936  0.080579  0  .  1
   O  O23  1  0.244775  0.261407  0.240933  0  .  1
   O  O24  1  0.694213  0.250897  0.092324  0  .  1
   O  O25  1  0.262722  0.263519  0.416088  0  .  1
   O  O26  1  0.263479  0.753090  0.246003  0  .  1
   O  O27  1  0.720519  0.740940  0.100323  0  .  1
   O  O28  1  0.248825  0.718315  0.419711  0  .  1
   O  O29  1  0.761819  0.253341  0.241628  0  .  1
   O  O30  1  0.276898  0.258975  0.567770  0  .  1
   O  O31  1  0.721114  0.264089  0.413681  0  .  1
   O  O32  1  0.759793  0.750094  0.243664  0  .  1
   O  O33  1  0.315750  0.736070  0.578383  0  .  1
   O  O34  1  0.240525  0.252583  0.752759  0  .  1
   O  O35  1  0.748994  0.723574  0.436589  0  .  1
   O  O36  1  0.737744  0.252866  0.589999  0  .  1
   O  O37  1  0.251216  0.749998  0.749497  0  .  1
   O  O38  1  0.255510  0.274178  0.901023  0  .  1
   O  O39  1  0.734339  0.757861  0.589256  0  .  1
   O  O40  1  0.702142  0.265498  0.754822  0  .  1
   O  O41  1  0.312819  0.727112  0.913614  0  .  1
   O  O42  1  0.746695  0.735770  0.759922  0  .  1
   O  O43  1  0.748645  0.231979  0.920753  0  .  1
   O  O44  1  0.760029  0.760114  0.916503  0  .  1
 
