#\#CIF1.1
##########################################################################
#               Crystallographic Information Format file 
#               Produced by PyCifRW module
# 
#  This is a CIF file.  CIF has been adopted by the International
#  Union of Crystallography as the standard for data archiving and 
#  transmission.
#
#  For information on this file format, follow the CIF links at
#  http://www.iucr.org
##########################################################################

data_Mg3V2O8
_symmetry_space_group_name_H-M          'P 1'
_cell_length_a                          6.12633417
_cell_length_b                          6.5668050996
_cell_length_c                          8.42351352
_cell_angle_alpha                       90.000030951
_cell_angle_beta                        90.0
_cell_angle_gamma                       117.804901399
_chemical_name_systematic               'Generated by pymatgen'
_symmetry_Int_Tables_number             1
_chemical_formula_structural            Mg3V2O8
_chemical_formula_sum                   'Mg6 V4 O16'
_cell_volume                            299.754761928
_cell_formula_units_Z                   2
loop_
  _symmetry_equiv_pos_site_id
  _symmetry_equiv_pos_as_xyz
   1  'x, y, z'
 
loop_
  _atom_site_type_symbol
  _atom_site_label
  _atom_site_symmetry_multiplicity
  _atom_site_fract_x
  _atom_site_fract_y
  _atom_site_fract_z
  _atom_site_attached_hydrogens
  _atom_site_B_iso_or_equiv
  _atom_site_occupancy
   O  O1  1  0.112146  0.765928  0.499977  0  .  1
   O  O2  1  0.346218  0.234072  0.500023  0  .  1
   O  O3  1  0.387854  0.234072  0.999977  0  .  1
   O  O4  1  0.153782  0.765928  0.000023  0  .  1
   O  O5  1  0.887854  0.234072  0.500023  0  .  1
   O  O6  1  0.653782  0.765928  0.499977  0  .  1
   O  O7  1  0.612146  0.765928  0.000023  0  .  1
   O  O8  1  0.846218  0.234072  0.999977  0  .  1
   O  O9  1  0.502689  0.005378  0.744926  0  .  1
   O  O10  1  0.497311  0.994622  0.255074  0  .  1
   O  O11  1  0.250902  0.501805  0.774679  0  .  1
   O  O12  1  0.749098  0.498195  0.225321  0  .  1
   O  O13  1  0.249097  0.498195  0.274679  0  .  1
   O  O14  1  0.750903  0.501805  0.725321  0  .  1
   O  O15  1  0.002689  0.005378  0.755074  0  .  1
   O  O16  1  0.997311  0.994622  0.244926  0  .  1
   Mg  Mg17  1  0.000000  0.000000  0.000000  0  .  1
   Mg  Mg18  1  0.500000  0.000000  0.500000  0  .  1
   Mg  Mg19  1  0.885769  0.271539  0.750000  0  .  1
   Mg  Mg20  1  0.614231  0.728461  0.250000  0  .  1
   Mg  Mg21  1  0.385769  0.271539  0.750000  0  .  1
   Mg  Mg22  1  0.114231  0.728461  0.250000  0  .  1
   V  V23  1  0.380009  0.760017  0.880353  0  .  1
   V  V24  1  0.619991  0.239983  0.119647  0  .  1
   V  V25  1  0.119991  0.239983  0.380353  0  .  1
   V  V26  1  0.880009  0.760017  0.619647  0  .  1
 
