#\#CIF1.1
##########################################################################
#               Crystallographic Information Format file 
#               Produced by PyCifRW module
# 
#  This is a CIF file.  CIF has been adopted by the International
#  Union of Crystallography as the standard for data archiving and 
#  transmission.
#
#  For information on this file format, follow the CIF links at
#  http://www.iucr.org
##########################################################################

data_Mg5Fe19O32
_symmetry_space_group_name_H-M          'P 1'
_cell_length_a                          8.5436818217
_cell_length_b                          10.460466476
_cell_length_c                          8.5436818217
_cell_angle_alpha                       65.7995493532
_cell_angle_beta                        90.3426869381
_cell_angle_gamma                       114.200450647
_chemical_name_systematic               'Generated by pymatgen'
_symmetry_Int_Tables_number             1
_chemical_formula_structural            Mg5Fe19O32
_chemical_formula_sum                   'Mg5 Fe19 O32'
_cell_volume                            623.077457422
_cell_formula_units_Z                   1
loop_
  _symmetry_equiv_pos_site_id
  _symmetry_equiv_pos_as_xyz
   1  'x, y, z'
 
loop_
  _atom_site_type_symbol
  _atom_site_label
  _atom_site_symmetry_multiplicity
  _atom_site_fract_x
  _atom_site_fract_y
  _atom_site_fract_z
  _atom_site_attached_hydrogens
  _atom_site_B_iso_or_equiv
  _atom_site_occupancy
   Mg  Mg1  1  0.375031  0.249436  0.874969  0  .  1
   Mg  Mg2  1  0.625000  0.250000  0.625000  0  .  1
   Mg  Mg3  1  0.874969  0.250564  0.375031  0  .  1
   Mg  Mg4  1  0.125000  0.750000  0.625000  0  .  1
   Mg  Mg5  1  0.625000  0.750000  0.125000  0  .  1
   Fe  Fe6  1  0.502985  0.001582  0.999297  0  .  1
   Fe  Fe7  1  0.250703  0.001582  0.747015  0  .  1
   Fe  Fe8  1  0.997680  0.000808  0.497815  0  .  1
   Fe  Fe9  1  0.752185  0.000808  0.252319  0  .  1
   Fe  Fe10  1  0.437976  0.128614  0.314663  0  .  1
   Fe  Fe11  1  0.935337  0.128614  0.812024  0  .  1
   Fe  Fe12  1  0.125000  0.250000  0.125000  0  .  1
   Fe  Fe13  1  0.314663  0.371386  0.437976  0  .  1
   Fe  Fe14  1  0.812024  0.371386  0.935337  0  .  1
   Fe  Fe15  1  0.747015  0.498418  0.250703  0  .  1
   Fe  Fe16  1  0.252319  0.499192  0.752185  0  .  1
   Fe  Fe17  1  0.999297  0.498418  0.502985  0  .  1
   Fe  Fe18  1  0.497815  0.499192  0.997680  0  .  1
   Fe  Fe19  1  0.184720  0.627241  0.065280  0  .  1
   Fe  Fe20  1  0.687013  0.625965  0.562987  0  .  1
   Fe  Fe21  1  0.376362  0.750000  0.376362  0  .  1
   Fe  Fe22  1  0.873638  0.750000  0.873638  0  .  1
   Fe  Fe23  1  0.065280  0.872759  0.184720  0  .  1
   Fe  Fe24  1  0.562987  0.874035  0.687013  0  .  1
   O  O25  1  0.003965  0.007272  0.246035  0  .  1
   O  O26  1  0.492211  0.002578  0.757789  0  .  1
   O  O27  1  0.754333  0.006660  0.495667  0  .  1
   O  O28  1  0.261078  0.002423  0.988923  0  .  1
   O  O29  1  0.117820  0.244849  0.367101  0  .  1
   O  O30  1  0.882899  0.244849  0.132180  0  .  1
   O  O31  1  0.373294  0.238516  0.636274  0  .  1
   O  O32  1  0.613726  0.238516  0.876706  0  .  1
   O  O33  1  0.132180  0.255151  0.882899  0  .  1
   O  O34  1  0.636274  0.261484  0.373294  0  .  1
   O  O35  1  0.876706  0.261484  0.613726  0  .  1
   O  O36  1  0.367101  0.255151  0.117820  0  .  1
   O  O37  1  0.495667  0.493340  0.754333  0  .  1
   O  O38  1  0.988923  0.497577  0.261078  0  .  1
   O  O39  1  0.246035  0.492728  0.003965  0  .  1
   O  O40  1  0.757789  0.497422  0.492211  0  .  1
   O  O41  1  0.245867  0.508049  0.494965  0  .  1
   O  O42  1  0.003499  0.504253  0.737037  0  .  1
   O  O43  1  0.755035  0.508049  0.004133  0  .  1
   O  O44  1  0.512963  0.504253  0.246501  0  .  1
   O  O45  1  0.130296  0.741376  0.384280  0  .  1
   O  O46  1  0.631329  0.743149  0.883027  0  .  1
   O  O47  1  0.865720  0.741376  0.119704  0  .  1
   O  O48  1  0.366973  0.743149  0.618671  0  .  1
   O  O49  1  0.883027  0.756851  0.631329  0  .  1
   O  O50  1  0.618671  0.756851  0.366973  0  .  1
   O  O51  1  0.119704  0.758624  0.865720  0  .  1
   O  O52  1  0.384280  0.758624  0.130296  0  .  1
   O  O53  1  0.737037  0.995747  0.003499  0  .  1
   O  O54  1  0.246501  0.995747  0.512963  0  .  1
   O  O55  1  0.004133  0.991951  0.755035  0  .  1
   O  O56  1  0.494965  0.991951  0.245867  0  .  1
 
