#\#CIF1.1
##########################################################################
#               Crystallographic Information Format file 
#               Produced by PyCifRW module
# 
#  This is a CIF file.  CIF has been adopted by the International
#  Union of Crystallography as the standard for data archiving and 
#  transmission.
#
#  For information on this file format, follow the CIF links at
#  http://www.iucr.org
##########################################################################

data_Mg5Ti13O30
_symmetry_space_group_name_H-M          'P 1'
_cell_length_a                          5.25633804881
_cell_length_b                          10.6767221487
_cell_length_c                          10.10629826
_cell_angle_alpha                       90.0
_cell_angle_beta                        90.0
_cell_angle_gamma                       96.1906265424
_chemical_name_systematic               'Generated by pymatgen'
_symmetry_Int_Tables_number             1
_chemical_formula_structural            Mg5Ti13O30
_chemical_formula_sum                   'Mg5 Ti13 O30'
_cell_volume                            563.862731034
_cell_formula_units_Z                   1
loop_
  _symmetry_equiv_pos_site_id
  _symmetry_equiv_pos_as_xyz
   1  'x, y, z'
 
loop_
  _atom_site_type_symbol
  _atom_site_label
  _atom_site_symmetry_multiplicity
  _atom_site_fract_x
  _atom_site_fract_y
  _atom_site_fract_z
  _atom_site_attached_hydrogens
  _atom_site_B_iso_or_equiv
  _atom_site_occupancy
   Mg  Mg1  1  0.323094  0.934255  0.750000  0  .  1
   Mg  Mg2  1  0.340351  0.731478  0.250000  0  .  1
   Mg  Mg3  1  0.009420  0.399722  0.250000  0  .  1
   Mg  Mg4  1  0.991436  0.603609  0.750000  0  .  1
   Mg  Mg5  1  0.672778  0.064180  0.250000  0  .  1
   Ti  Ti6  1  0.227016  0.954447  0.433086  0  .  1
   Ti  Ti7  1  0.227016  0.954447  0.066914  0  .  1
   Ti  Ti8  1  0.442808  0.711219  0.932266  0  .  1
   Ti  Ti9  1  0.442808  0.711219  0.567734  0  .  1
   Ti  Ti10  1  0.107603  0.381054  0.938624  0  .  1
   Ti  Ti11  1  0.107603  0.381054  0.561376  0  .  1
   Ti  Ti12  1  0.890272  0.623358  0.432697  0  .  1
   Ti  Ti13  1  0.561774  0.286523  0.068082  0  .  1
   Ti  Ti14  1  0.890272  0.623358  0.067303  0  .  1
   Ti  Ti15  1  0.561774  0.286523  0.431918  0  .  1
   Ti  Ti16  1  0.658485  0.267891  0.750000  0  .  1
   Ti  Ti17  1  0.778001  0.042133  0.938042  0  .  1
   Ti  Ti18  1  0.778001  0.042133  0.561958  0  .  1
   O  O19  1  0.074834  0.984973  0.613382  0  .  1
   O  O20  1  0.074834  0.984973  0.886618  0  .  1
   O  O21  1  0.145835  0.770634  0.063031  0  .  1
   O  O22  1  0.145835  0.770634  0.436969  0  .  1
   O  O23  1  0.367114  0.926263  0.250000  0  .  1
   O  O24  1  0.033506  0.592699  0.250000  0  .  1
   O  O25  1  0.299196  0.740374  0.750000  0  .  1
   O  O26  1  0.522384  0.896835  0.934100  0  .  1
   O  O27  1  0.522384  0.896835  0.565900  0  .  1
   O  O28  1  0.188082  0.561193  0.566737  0  .  1
   O  O29  1  0.188082  0.561193  0.933263  0  .  1
   O  O30  1  0.590802  0.681963  0.386682  0  .  1
   O  O31  1  0.590802  0.681963  0.113318  0  .  1
   O  O32  1  0.259133  0.347489  0.389000  0  .  1
   O  O33  1  0.259133  0.347489  0.111000  0  .  1
   O  O34  1  0.742002  0.651164  0.613037  0  .  1
   O  O35  1  0.742002  0.651164  0.886963  0  .  1
   O  O36  1  0.414570  0.317158  0.619886  0  .  1
   O  O37  1  0.414570  0.317158  0.880114  0  .  1
   O  O38  1  0.479090  0.104548  0.064548  0  .  1
   O  O39  1  0.815974  0.436593  0.437990  0  .  1
   O  O40  1  0.815974  0.436593  0.062010  0  .  1
   O  O41  1  0.479090  0.104548  0.435452  0  .  1
   O  O42  1  0.702562  0.260293  0.250000  0  .  1
   O  O43  1  0.950191  0.402357  0.750000  0  .  1
   O  O44  1  0.625017  0.082689  0.750000  0  .  1
   O  O45  1  0.848425  0.229940  0.930723  0  .  1
   O  O46  1  0.848425  0.229940  0.569277  0  .  1
   O  O47  1  0.924819  0.015870  0.386605  0  .  1
   O  O48  1  0.924819  0.015870  0.113395  0  .  1
 
