#\#CIF1.1
##########################################################################
#               Crystallographic Information Format file 
#               Produced by PyCifRW module
# 
#  This is a CIF file.  CIF has been adopted by the International
#  Union of Crystallography as the standard for data archiving and 
#  transmission.
#
#  For information on this file format, follow the CIF links at
#  http://www.iucr.org
##########################################################################

data_Mg6MnO8
_symmetry_space_group_name_H-M          'P 1'
_cell_length_a                          5.99429885945
_cell_length_b                          5.99429886463
_cell_length_c                          5.99429886
_cell_angle_alpha                       60.0000000256
_cell_angle_beta                        59.999999997
_cell_angle_gamma                       60.0000000266
_chemical_name_systematic               'Generated by pymatgen'
_symmetry_Int_Tables_number             1
_chemical_formula_structural            Mg6MnO8
_chemical_formula_sum                   'Mg6 Mn1 O8'
_cell_volume                            152.300096468
_cell_formula_units_Z                   1
loop_
  _symmetry_equiv_pos_site_id
  _symmetry_equiv_pos_as_xyz
   1  'x, y, z'
 
loop_
  _atom_site_type_symbol
  _atom_site_label
  _atom_site_symmetry_multiplicity
  _atom_site_fract_x
  _atom_site_fract_y
  _atom_site_fract_z
  _atom_site_attached_hydrogens
  _atom_site_B_iso_or_equiv
  _atom_site_occupancy
   O  O1  1  0.229365  0.770635  0.770635  0  .  1
   O  O2  1  0.229365  0.770635  0.229365  0  .  1
   O  O3  1  0.770635  0.229365  0.770635  0  .  1
   O  O4  1  0.229365  0.229365  0.770635  0  .  1
   O  O5  1  0.770635  0.770635  0.229365  0  .  1
   O  O6  1  0.770635  0.229365  0.229365  0  .  1
   O  O7  1  0.750000  0.750000  0.750000  0  .  1
   O  O8  1  0.250000  0.250000  0.250000  0  .  1
   Mg  Mg9  1  0.500000  0.000000  0.000000  0  .  1
   Mg  Mg10  1  0.500000  0.000000  0.500000  0  .  1
   Mg  Mg11  1  0.000000  0.500000  0.000000  0  .  1
   Mg  Mg12  1  0.000000  0.500000  0.500000  0  .  1
   Mg  Mg13  1  0.500000  0.500000  0.000000  0  .  1
   Mg  Mg14  1  0.000000  0.000000  0.500000  0  .  1
   Mn  Mn15  1  0.000000  0.000000  0.000000  0  .  1
 
