#\#CIF1.1
##########################################################################
#               Crystallographic Information Format file 
#               Produced by PyCifRW module
# 
#  This is a CIF file.  CIF has been adopted by the International
#  Union of Crystallography as the standard for data archiving and 
#  transmission.
#
#  For information on this file format, follow the CIF links at
#  http://www.iucr.org
##########################################################################

data_Mg7Cu2O9
_symmetry_space_group_name_H-M          'P 1'
_cell_length_a                          3.013459173
_cell_length_b                          7.95351710038
_cell_length_c                          7.35498340623
_cell_angle_alpha                       89.9083175697
_cell_angle_beta                        90.0266310878
_cell_angle_gamma                       79.0610947752
_chemical_name_systematic               'Generated by pymatgen'
_symmetry_Int_Tables_number             1
_chemical_formula_structural            Mg7Cu2O9
_chemical_formula_sum                   'Mg7 Cu2 O9'
_cell_volume                            173.078002852
_cell_formula_units_Z                   1
loop_
  _symmetry_equiv_pos_site_id
  _symmetry_equiv_pos_as_xyz
   1  'x, y, z'
 
loop_
  _atom_site_type_symbol
  _atom_site_label
  _atom_site_symmetry_multiplicity
  _atom_site_fract_x
  _atom_site_fract_y
  _atom_site_fract_z
  _atom_site_attached_hydrogens
  _atom_site_B_iso_or_equiv
  _atom_site_occupancy
   Mg  Mg1  1  0.557094  0.885860  0.669010  0  .  1
   Mg  Mg2  1  0.109874  0.780376  0.330916  0  .  1
   Mg  Mg3  1  0.888680  0.222526  0.665801  0  .  1
   Mg  Mg4  1  0.667568  0.664898  0.997025  0  .  1
   Mg  Mg5  1  0.777699  0.444633  0.334522  0  .  1
   Mg  Mg6  1  0.333159  0.333511  0.999800  0  .  1
   Mg  Mg7  1  0.999212  0.001516  0.002992  0  .  1
   Cu  Cu8  1  0.222048  0.555732  0.665843  0  .  1
   Cu  Cu9  1  0.444652  0.110892  0.334084  0  .  1
   O  O10  1  0.109627  0.780989  0.835838  0  .  1
   O  O11  1  0.666196  0.669155  0.496281  0  .  1
   O  O12  1  0.778609  0.441045  0.836707  0  .  1
   O  O13  1  0.557199  0.885319  0.163736  0  .  1
   O  O14  1  0.444031  0.111766  0.833488  0  .  1
   O  O15  1  0.333080  0.333717  0.500292  0  .  1
   O  O16  1  0.222728  0.554727  0.166446  0  .  1
   O  O17  1  0.000638  0.998329  0.502878  0  .  1
   O  O18  1  0.887905  0.225010  0.164340  0  .  1
 
