#\#CIF1.1
##########################################################################
#               Crystallographic Information Format file 
#               Produced by PyCifRW module
# 
#  This is a CIF file.  CIF has been adopted by the International
#  Union of Crystallography as the standard for data archiving and 
#  transmission.
#
#  For information on this file format, follow the CIF links at
#  http://www.iucr.org
##########################################################################

data_Mg9V10O24
_symmetry_space_group_name_H-M          'P 1'
_cell_length_a                          6.00034021125
_cell_length_b                          5.98947551105
_cell_length_c                          18.4494851033
_cell_angle_alpha                       60.85884715
_cell_angle_beta                        61.3010450417
_cell_angle_gamma                       60.0598750975
_chemical_name_systematic               'Generated by pymatgen'
_symmetry_Int_Tables_number             1
_chemical_formula_structural            Mg9V10O24
_chemical_formula_sum                   'Mg9 V10 O24'
_cell_volume                            476.565779857
_cell_formula_units_Z                   1
loop_
  _symmetry_equiv_pos_site_id
  _symmetry_equiv_pos_as_xyz
   1  'x, y, z'
 
loop_
  _atom_site_type_symbol
  _atom_site_label
  _atom_site_symmetry_multiplicity
  _atom_site_fract_x
  _atom_site_fract_y
  _atom_site_fract_z
  _atom_site_attached_hydrogens
  _atom_site_B_iso_or_equiv
  _atom_site_occupancy
   Mg  Mg1  1  0.130981  0.134213  0.033531  0  .  1
   Mg  Mg2  1  0.124248  0.124367  0.375673  0  .  1
   Mg  Mg3  1  0.143212  0.157447  0.680631  0  .  1
   Mg  Mg4  1  0.875752  0.875633  0.290994  0  .  1
   Mg  Mg5  1  0.000000  0.000000  0.833333  0  .  1
   Mg  Mg6  1  0.500000  0.500000  0.833333  0  .  1
   Mg  Mg7  1  0.869019  0.865787  0.633136  0  .  1
   Mg  Mg8  1  0.500000  0.000000  0.833333  0  .  1
   Mg  Mg9  1  0.856788  0.842553  0.986035  0  .  1
   V  V10  1  0.491951  0.495066  0.170195  0  .  1
   V  V11  1  0.491951  0.002397  0.170195  0  .  1
   V  V12  1  0.500000  0.500000  0.333333  0  .  1
   V  V13  1  0.508049  0.504934  0.496472  0  .  1
   V  V14  1  -0.000082  0.493822  0.170813  0  .  1
   V  V15  1  0.508049  0.997603  0.496472  0  .  1
   V  V16  1  0.501631  0.496439  0.668498  0  .  1
   V  V17  1  0.000082  0.506178  0.495854  0  .  1
   V  V18  1  0.498369  0.503561  0.998169  0  .  1
   V  V19  1  0.000000  0.500000  0.833333  0  .  1
   O  O20  1  0.258975  0.260600  0.086761  0  .  1
   O  O21  1  0.258975  0.720140  0.086761  0  .  1
   O  O22  1  0.257996  0.258255  0.241831  0  .  1
   O  O23  1  0.717716  0.261928  0.086142  0  .  1
   O  O24  1  0.275258  0.738828  0.249028  0  .  1
   O  O25  1  0.263870  0.262600  0.416998  0  .  1
   O  O26  1  0.736130  0.277464  0.249669  0  .  1
   O  O27  1  0.263870  0.722536  0.416998  0  .  1
   O  O28  1  0.723902  0.726948  0.107401  0  .  1
   O  O29  1  0.276098  0.273052  0.559265  0  .  1
   O  O30  1  0.724742  0.261172  0.417639  0  .  1
   O  O31  1  0.736130  0.737400  0.249669  0  .  1
   O  O32  1  0.282284  0.738072  0.580524  0  .  1
   O  O33  1  0.242583  0.250799  0.752101  0  .  1
   O  O34  1  0.741025  0.279860  0.579905  0  .  1
   O  O35  1  0.742004  0.741745  0.424836  0  .  1
   O  O36  1  0.254153  0.268509  0.902944  0  .  1
   O  O37  1  0.242583  0.750316  0.752101  0  .  1
   O  O38  1  0.743786  0.254317  0.749193  0  .  1
   O  O39  1  0.741025  0.739400  0.579905  0  .  1
   O  O40  1  0.256214  0.745683  0.917474  0  .  1
   O  O41  1  0.757417  0.249684  0.914566  0  .  1
   O  O42  1  0.745847  0.731491  0.763723  0  .  1
   O  O43  1  0.757417  0.749201  0.914566  0  .  1
 
