#\#CIF1.1
##########################################################################
#               Crystallographic Information Format file 
#               Produced by PyCifRW module
# 
#  This is a CIF file.  CIF has been adopted by the International
#  Union of Crystallography as the standard for data archiving and 
#  transmission.
#
#  For information on this file format, follow the CIF links at
#  http://www.iucr.org
##########################################################################

data_MgCrO4
_symmetry_space_group_name_H-M          'P 1'
_cell_length_a                          6.84151102379
_cell_length_b                          6.84406250076
_cell_length_c                          6.84406288052
_cell_angle_alpha                       85.3320331565
_cell_angle_beta                        79.9116020601
_cell_angle_gamma                       79.9116037021
_chemical_name_systematic               'Generated by pymatgen'
_symmetry_Int_Tables_number             1
_chemical_formula_structural            MgCrO4
_chemical_formula_sum                   'Mg4 Cr4 O16'
_cell_volume                            310.206373958
_cell_formula_units_Z                   4
loop_
  _symmetry_equiv_pos_site_id
  _symmetry_equiv_pos_as_xyz
   1  'x, y, z'
 
loop_
  _atom_site_type_symbol
  _atom_site_label
  _atom_site_symmetry_multiplicity
  _atom_site_fract_x
  _atom_site_fract_y
  _atom_site_fract_z
  _atom_site_attached_hydrogens
  _atom_site_B_iso_or_equiv
  _atom_site_occupancy
   Mg  Mg1  1  0.500000  0.181895  0.818105  0  .  1
   Mg  Mg2  1  0.500000  0.818105  0.181895  0  .  1
   Mg  Mg3  1  0.866060  0.796701  0.796701  0  .  1
   Mg  Mg4  1  0.133940  0.203299  0.203299  0  .  1
   Cr  Cr5  1  1.000000  0.256155  0.743845  0  .  1
   Cr  Cr6  1  0.000000  0.743845  0.256155  0  .  1
   Cr  Cr7  1  0.588246  0.274473  0.274473  0  .  1
   Cr  Cr8  1  0.411754  0.725527  0.725527  0  .  1
   O  O9  1  0.539547  0.857675  0.857675  0  .  1
   O  O10  1  0.460453  0.142325  0.142325  0  .  1
   O  O11  1  0.832442  0.211861  0.211861  0  .  1
   O  O12  1  0.167558  0.788139  0.788139  0  .  1
   O  O13  1  0.897126  0.487786  0.778524  0  .  1
   O  O14  1  0.102874  0.221476  0.512214  0  .  1
   O  O15  1  0.102874  0.512214  0.221476  0  .  1
   O  O16  1  0.897126  0.778524  0.487786  0  .  1
   O  O17  1  0.816300  0.798795  0.112355  0  .  1
   O  O18  1  0.183700  0.887645  0.201205  0  .  1
   O  O19  1  0.183700  0.201205  0.887645  0  .  1
   O  O20  1  0.816300  0.112355  0.798795  0  .  1
   O  O21  1  0.523432  0.511095  0.216235  0  .  1
   O  O22  1  0.476568  0.783765  0.488905  0  .  1
   O  O23  1  0.476568  0.488905  0.783765  0  .  1
   O  O24  1  0.523432  0.216235  0.511095  0  .  1
 
