#\#CIF1.1
##########################################################################
#               Crystallographic Information Format file 
#               Produced by PyCifRW module
# 
#  This is a CIF file.  CIF has been adopted by the International
#  Union of Crystallography as the standard for data archiving and 
#  transmission.
#
#  For information on this file format, follow the CIF links at
#  http://www.iucr.org
##########################################################################

data_MgFeO3
_symmetry_space_group_name_H-M          'P 1'
_cell_length_a                          5.50642988653
_cell_length_b                          5.50642988796
_cell_length_c                          5.50642999925
_cell_angle_alpha                       55.1447136524
_cell_angle_beta                        55.1447136057
_cell_angle_gamma                       55.1447202445
_chemical_name_systematic               'Generated by pymatgen'
_symmetry_Int_Tables_number             1
_chemical_formula_structural            MgFeO3
_chemical_formula_sum                   'Mg2 Fe2 O6'
_cell_volume                            104.729180183
_cell_formula_units_Z                   2
loop_
  _symmetry_equiv_pos_site_id
  _symmetry_equiv_pos_as_xyz
   1  'x, y, z'
 
loop_
  _atom_site_type_symbol
  _atom_site_label
  _atom_site_symmetry_multiplicity
  _atom_site_fract_x
  _atom_site_fract_y
  _atom_site_fract_z
  _atom_site_attached_hydrogens
  _atom_site_B_iso_or_equiv
  _atom_site_occupancy
   Mg  Mg1  1  0.141492  0.141492  0.141492  0  .  1
   Mg  Mg2  1  0.858508  0.858508  0.858508  0  .  1
   Fe  Fe3  1  0.347590  0.347590  0.347590  0  .  1
   Fe  Fe4  1  0.652410  0.652410  0.652410  0  .  1
   O  O5  1  0.058382  0.724193  0.458340  0  .  1
   O  O6  1  0.541660  0.941618  0.275807  0  .  1
   O  O7  1  0.275807  0.541660  0.941618  0  .  1
   O  O8  1  0.724193  0.458340  0.058382  0  .  1
   O  O9  1  0.458340  0.058382  0.724193  0  .  1
   O  O10  1  0.941618  0.275807  0.541660  0  .  1
 
