#\#CIF1.1
##########################################################################
#               Crystallographic Information Format file 
#               Produced by PyCifRW module
# 
#  This is a CIF file.  CIF has been adopted by the International
#  Union of Crystallography as the standard for data archiving and 
#  transmission.
#
#  For information on this file format, follow the CIF links at
#  http://www.iucr.org
##########################################################################

data_MgTiO3
_symmetry_space_group_name_H-M          'P 1'
_cell_length_a                          5.53133980742
_cell_length_b                          5.53133980967
_cell_length_c                          5.53133981406
_cell_angle_alpha                       54.9417448307
_cell_angle_beta                        54.9417448441
_cell_angle_gamma                       54.9417448126
_chemical_name_systematic               'Generated by pymatgen'
_symmetry_Int_Tables_number             1
_chemical_formula_structural            MgTiO3
_chemical_formula_sum                   'Mg2 Ti2 O6'
_cell_volume                            105.580390536
_cell_formula_units_Z                   2
loop_
  _symmetry_equiv_pos_site_id
  _symmetry_equiv_pos_as_xyz
   1  'x, y, z'
 
loop_
  _atom_site_type_symbol
  _atom_site_label
  _atom_site_symmetry_multiplicity
  _atom_site_fract_x
  _atom_site_fract_y
  _atom_site_fract_z
  _atom_site_attached_hydrogens
  _atom_site_B_iso_or_equiv
  _atom_site_occupancy
   O  O1  1  0.048165  0.774755  0.437010  0  .  1
   O  O2  1  0.774755  0.437010  0.048165  0  .  1
   O  O3  1  0.437010  0.048165  0.774755  0  .  1
   O  O4  1  0.951835  0.225245  0.562990  0  .  1
   O  O5  1  0.562990  0.951835  0.225245  0  .  1
   O  O6  1  0.225245  0.562990  0.951835  0  .  1
   Mg  Mg7  1  0.354731  0.354731  0.354731  0  .  1
   Mg  Mg8  1  0.645269  0.645269  0.645269  0  .  1
   Ti  Ti9  1  0.143611  0.143611  0.143611  0  .  1
   Ti  Ti10  1  0.856389  0.856389  0.856389  0  .  1
 
