#\#CIF1.1
##########################################################################
#               Crystallographic Information Format file 
#               Produced by PyCifRW module
# 
#  This is a CIF file.  CIF has been adopted by the International
#  Union of Crystallography as the standard for data archiving and 
#  transmission.
#
#  For information on this file format, follow the CIF links at
#  http://www.iucr.org
##########################################################################

data_MgTi2O4
_symmetry_space_group_name_H-M          'P 1'
_cell_length_a                          6.03815271809
_cell_length_b                          6.03815258491
_cell_length_c                          6.0381531
_cell_angle_alpha                       60.0000027662
_cell_angle_beta                        60.0000034958
_cell_angle_gamma                       60.0000016009
_chemical_name_systematic               'Generated by pymatgen'
_symmetry_Int_Tables_number             1
_chemical_formula_structural            MgTi2O4
_chemical_formula_sum                   'Mg2 Ti4 O8'
_cell_volume                            155.667275747
_cell_formula_units_Z                   2
loop_
  _symmetry_equiv_pos_site_id
  _symmetry_equiv_pos_as_xyz
   1  'x, y, z'
 
loop_
  _atom_site_type_symbol
  _atom_site_label
  _atom_site_symmetry_multiplicity
  _atom_site_fract_x
  _atom_site_fract_y
  _atom_site_fract_z
  _atom_site_attached_hydrogens
  _atom_site_B_iso_or_equiv
  _atom_site_occupancy
   Mg  Mg1  1  0.875000  0.875000  0.875000  0  .  1
   Mg  Mg2  1  0.125000  0.125000  0.125000  0  .  1
   Ti  Ti3  1  0.500000  0.500000  0.500000  0  .  1
   Ti  Ti4  1  0.500000  0.500000  0.000000  0  .  1
   Ti  Ti5  1  0.000000  0.500000  0.500000  0  .  1
   Ti  Ti6  1  0.500000  0.000000  0.500000  0  .  1
   O  O7  1  0.258244  0.258244  0.258244  0  .  1
   O  O8  1  0.741756  0.741756  0.274733  0  .  1
   O  O9  1  0.274733  0.741756  0.741756  0  .  1
   O  O10  1  0.741756  0.274733  0.741756  0  .  1
   O  O11  1  0.725267  0.258244  0.258244  0  .  1
   O  O12  1  0.258244  0.725267  0.258244  0  .  1
   O  O13  1  0.258244  0.258244  0.725267  0  .  1
   O  O14  1  0.741756  0.741756  0.741756  0  .  1
 
