#\#CIF1.1
##########################################################################
#               Crystallographic Information Format file 
#               Produced by PyCifRW module
# 
#  This is a CIF file.  CIF has been adopted by the International
#  Union of Crystallography as the standard for data archiving and 
#  transmission.
#
#  For information on this file format, follow the CIF links at
#  http://www.iucr.org
##########################################################################

data_MgTi23O40
_symmetry_space_group_name_H-M          'P 1'
_cell_length_a                          7.62038496388
_cell_length_b                          10.6034251111
_cell_length_c                          11.3440074269
_cell_angle_alpha                       110.013703285
_cell_angle_beta                        80.3409529091
_cell_angle_gamma                       68.9810777409
_chemical_name_systematic               'Generated by pymatgen'
_symmetry_Int_Tables_number             1
_chemical_formula_structural            MgTi23O40
_chemical_formula_sum                   'Mg1 Ti23 O40'
_cell_volume                            758.569363697
_cell_formula_units_Z                   1
loop_
  _symmetry_equiv_pos_site_id
  _symmetry_equiv_pos_as_xyz
   1  'x, y, z'
 
loop_
  _atom_site_type_symbol
  _atom_site_label
  _atom_site_symmetry_multiplicity
  _atom_site_fract_x
  _atom_site_fract_y
  _atom_site_fract_z
  _atom_site_attached_hydrogens
  _atom_site_B_iso_or_equiv
  _atom_site_occupancy
   Mg  Mg1  1  0.777163  0.821823  0.250238  0  .  1
   Ti  Ti2  1  0.035816  0.895112  0.058099  0  .  1
   Ti  Ti3  1  0.540459  0.894470  0.057292  0  .  1
   Ti  Ti4  1  0.275438  0.823267  0.249846  0  .  1
   Ti  Ti5  1  0.154060  0.912702  0.557863  0  .  1
   Ti  Ti6  1  0.652211  0.916014  0.560260  0  .  1
   Ti  Ti7  1  0.346014  0.587448  0.442491  0  .  1
   Ti  Ti8  1  0.847859  0.585661  0.438066  0  .  1
   Ti  Ti9  1  0.036879  0.397118  0.056747  0  .  1
   Ti  Ti10  1  0.538344  0.395361  0.056081  0  .  1
   Ti  Ti11  1  0.720516  0.680609  0.751799  0  .  1
   Ti  Ti12  1  0.222308  0.680416  0.751363  0  .  1
   Ti  Ti13  1  0.776490  0.320202  0.248712  0  .  1
   Ti  Ti14  1  0.279467  0.319736  0.248317  0  .  1
   Ti  Ti15  1  0.961449  0.605452  0.944076  0  .  1
   Ti  Ti16  1  0.461357  0.604944  0.944245  0  .  1
   Ti  Ti17  1  0.153294  0.413196  0.561994  0  .  1
   Ti  Ti18  1  0.654248  0.411617  0.558819  0  .  1
   Ti  Ti19  1  0.846304  0.085553  0.438789  0  .  1
   Ti  Ti20  1  0.350916  0.082694  0.437061  0  .  1
   Ti  Ti21  1  0.221167  0.179801  0.751830  0  .  1
   Ti  Ti22  1  0.723466  0.179614  0.750140  0  .  1
   Ti  Ti23  1  0.961922  0.104108  0.944000  0  .  1
   Ti  Ti24  1  0.461685  0.104325  0.944566  0  .  1
   O  O25  1  0.310380  0.846440  0.065898  0  .  1
   O  O26  1  0.810040  0.846292  0.066695  0  .  1
   O  O27  1  0.479527  0.897795  0.249785  0  .  1
   O  O28  1  0.998716  0.896841  0.249427  0  .  1
   O  O29  1  0.873136  0.970024  0.572118  0  .  1
   O  O30  1  0.369703  0.972700  0.571485  0  .  1
   O  O31  1  0.782952  0.739939  0.388444  0  .  1
   O  O32  1  0.284363  0.740910  0.379327  0  .  1
   O  O33  1  0.413452  0.611893  0.123645  0  .  1
   O  O34  1  0.918953  0.604526  0.116740  0  .  1
   O  O35  1  0.585988  0.889783  0.876533  0  .  1
   O  O36  1  0.086137  0.889631  0.877371  0  .  1
   O  O37  1  0.215500  0.760352  0.620406  0  .  1
   O  O38  1  0.714848  0.759630  0.617930  0  .  1
   O  O39  1  0.307474  0.349053  0.067984  0  .  1
   O  O40  1  0.809580  0.348715  0.067412  0  .  1
   O  O41  1  0.129795  0.526327  0.428256  0  .  1
   O  O42  1  0.628561  0.528679  0.428422  0  .  1
   O  O43  1  0.492923  0.390172  0.248449  0  .  1
   O  O44  1  0.991776  0.391413  0.249701  0  .  1
   O  O45  1  0.007752  0.610756  0.747643  0  .  1
   O  O46  1  0.507149  0.609504  0.750810  0  .  1
   O  O47  1  0.869492  0.474235  0.571972  0  .  1
   O  O48  1  0.372611  0.470026  0.571222  0  .  1
   O  O49  1  0.193213  0.648916  0.930244  0  .  1
   O  O50  1  0.693656  0.648274  0.929512  0  .  1
   O  O51  1  0.282403  0.241086  0.382085  0  .  1
   O  O52  1  0.785151  0.240144  0.379504  0  .  1
   O  O53  1  0.415521  0.109422  0.123622  0  .  1
   O  O54  1  0.913641  0.109836  0.123121  0  .  1
   O  O55  1  0.584808  0.390329  0.877077  0  .  1
   O  O56  1  0.086437  0.390585  0.876426  0  .  1
   O  O57  1  0.717335  0.259438  0.620406  0  .  1
   O  O58  1  0.213468  0.259594  0.618600  0  .  1
   O  O59  1  0.126589  0.028990  0.432214  0  .  1
   O  O60  1  0.628633  0.027682  0.431898  0  .  1
   O  O61  1  0.507704  0.109271  0.750491  0  .  1
   O  O62  1  0.007074  0.109977  0.751668  0  .  1
   O  O63  1  0.193124  0.148633  0.931058  0  .  1
   O  O64  1  0.691604  0.150940  0.931704  0  .  1
 
