#\#CIF1.1
##########################################################################
#               Crystallographic Information Format file 
#               Produced by PyCifRW module
# 
#  This is a CIF file.  CIF has been adopted by the International
#  Union of Crystallography as the standard for data archiving and 
#  transmission.
#
#  For information on this file format, follow the CIF links at
#  http://www.iucr.org
##########################################################################

data_MgV2O6
_symmetry_space_group_name_H-M          'P 1'
_cell_length_a                          3.53531431029
_cell_length_b                          5.19368518348
_cell_length_c                          7.05547228113
_cell_angle_alpha                       105.130430382
_cell_angle_beta                        90.0004830046
_cell_angle_gamma                       109.896572046
_chemical_name_systematic               'Generated by pymatgen'
_symmetry_Int_Tables_number             1
_chemical_formula_structural            MgV2O6
_chemical_formula_sum                   'Mg1 V2 O6'
_cell_volume                            117.027450247
_cell_formula_units_Z                   1
loop_
  _symmetry_equiv_pos_site_id
  _symmetry_equiv_pos_as_xyz
   1  'x, y, z'
 
loop_
  _atom_site_type_symbol
  _atom_site_label
  _atom_site_symmetry_multiplicity
  _atom_site_fract_x
  _atom_site_fract_y
  _atom_site_fract_z
  _atom_site_attached_hydrogens
  _atom_site_B_iso_or_equiv
  _atom_site_occupancy
   O  O1  1  0.286940  0.573885  0.417388  0  .  1
   O  O2  1  0.713059  0.426114  0.582607  0  .  1
   O  O3  1  0.076171  0.152372  0.759563  0  .  1
   O  O4  1  0.633106  0.266260  0.123140  0  .  1
   O  O5  1  0.923836  0.847642  0.240437  0  .  1
   O  O6  1  0.366895  0.733743  0.876860  0  .  1
   Mg  Mg7  1  0.000002  0.000003  -0.000001  0  .  1
   V  V8  1  0.778649  0.557313  0.323387  0  .  1
   V  V9  1  0.221340  0.442668  0.676618  0  .  1
 
