#\#CIF1.1
##########################################################################
#               Crystallographic Information Format file 
#               Produced by PyCifRW module
# 
#  This is a CIF file.  CIF has been adopted by the International
#  Union of Crystallography as the standard for data archiving and 
#  transmission.
#
#  For information on this file format, follow the CIF links at
#  http://www.iucr.org
##########################################################################

data_MgV2O5
_symmetry_space_group_name_H-M          'P 1'
_cell_length_a                          3.7275667
_cell_length_b                          5.42113452421
_cell_length_c                          11.20607897
_cell_angle_alpha                       90.0
_cell_angle_beta                        90.0
_cell_angle_gamma                       110.10853013
_chemical_name_systematic               'Generated by pymatgen'
_symmetry_Int_Tables_number             1
_chemical_formula_structural            MgV2O5
_chemical_formula_sum                   'Mg2 V4 O10'
_cell_volume                            212.644817163
_cell_formula_units_Z                   2
loop_
  _symmetry_equiv_pos_site_id
  _symmetry_equiv_pos_as_xyz
   1  'x, y, z'
 
loop_
  _atom_site_type_symbol
  _atom_site_label
  _atom_site_symmetry_multiplicity
  _atom_site_fract_x
  _atom_site_fract_y
  _atom_site_fract_z
  _atom_site_attached_hydrogens
  _atom_site_B_iso_or_equiv
  _atom_site_occupancy
   O  O1  1  0.696025  0.392050  0.250000  0  .  1
   O  O2  1  0.303976  0.607951  0.750000  0  .  1
   O  O3  1  0.235558  0.471115  0.077518  0  .  1
   O  O4  1  0.764444  0.528886  0.922482  0  .  1
   O  O5  1  0.764444  0.528886  0.577518  0  .  1
   O  O6  1  0.235558  0.471115  0.422481  0  .  1
   O  O7  1  0.041029  0.082057  0.627942  0  .  1
   O  O8  1  0.958971  0.917942  0.372058  0  .  1
   O  O9  1  0.041029  0.082057  0.872058  0  .  1
   O  O10  1  0.958971  0.917942  0.127943  0  .  1
   Mg  Mg11  1  0.891383  0.782764  0.750000  0  .  1
   Mg  Mg12  1  0.108618  0.217237  0.250000  0  .  1
   V  V13  1  0.201108  0.402216  0.597782  0  .  1
   V  V14  1  0.798893  0.597785  0.402217  0  .  1
   V  V15  1  0.798893  0.597785  0.097783  0  .  1
   V  V16  1  0.201108  0.402216  0.902218  0  .  1
 
