#\#CIF1.1
##########################################################################
#               Crystallographic Information Format file 
#               Produced by PyCifRW module
# 
#  This is a CIF file.  CIF has been adopted by the International
#  Union of Crystallography as the standard for data archiving and 
#  transmission.
#
#  For information on this file format, follow the CIF links at
#  http://www.iucr.org
##########################################################################

data_MgV3O8
_symmetry_space_group_name_H-M          'P 1'
_cell_length_a                          13.6764459022
_cell_length_b                          10.5644785123
_cell_length_c                          7.84791060692
_cell_angle_alpha                       60.1204925526
_cell_angle_beta                        67.3673558325
_cell_angle_gamma                       39.4248802562
_chemical_name_systematic               'Generated by pymatgen'
_symmetry_Int_Tables_number             1
_chemical_formula_structural            MgV3O8
_chemical_formula_sum                   'Mg4 V12 O32'
_cell_volume                            624.382736883
_cell_formula_units_Z                   4
loop_
  _symmetry_equiv_pos_site_id
  _symmetry_equiv_pos_as_xyz
   1  'x, y, z'
 
loop_
  _atom_site_type_symbol
  _atom_site_label
  _atom_site_symmetry_multiplicity
  _atom_site_fract_x
  _atom_site_fract_y
  _atom_site_fract_z
  _atom_site_attached_hydrogens
  _atom_site_B_iso_or_equiv
  _atom_site_occupancy
   Mg  Mg1  1  0.315417  0.070361  0.293199  0  .  1
   Mg  Mg2  1  0.184583  0.701195  0.293199  0  .  1
   Mg  Mg3  1  0.815417  0.298805  0.706801  0  .  1
   Mg  Mg4  1  0.684583  0.929639  0.706801  0  .  1
   V  V5  1  0.005515  0.372564  0.773903  0  .  1
   V  V6  1  0.003272  0.815845  0.706885  0  .  1
   V  V7  1  0.320427  0.283049  0.733623  0  .  1
   V  V8  1  0.503272  0.177611  0.293115  0  .  1
   V  V9  1  0.179573  0.923902  0.733623  0  .  1
   V  V10  1  0.494485  0.383594  0.773903  0  .  1
   V  V11  1  0.505515  0.616406  0.226097  0  .  1
   V  V12  1  0.820427  0.076098  0.266377  0  .  1
   V  V13  1  0.496728  0.822389  0.706885  0  .  1
   V  V14  1  0.679573  0.716951  0.266377  0  .  1
   V  V15  1  0.996728  0.184155  0.293115  0  .  1
   V  V16  1  0.994485  0.627436  0.226097  0  .  1
   O  O17  1  0.994853  0.008058  0.316978  0  .  1
   O  O18  1  0.006930  0.291829  0.039797  0  .  1
   O  O19  1  0.157224  0.059589  0.387851  0  .  1
   O  O20  1  0.306441  0.206921  0.978366  0  .  1
   O  O21  1  0.154896  0.367477  0.300291  0  .  1
   O  O22  1  0.165342  0.319887  0.691351  0  .  1
   O  O23  1  0.996269  0.766182  0.288653  0  .  1
   O  O24  1  0.505147  0.997763  0.316978  0  .  1
   O  O25  1  0.342776  0.374037  0.387851  0  .  1
   O  O26  1  0.169041  0.601910  0.626549  0  .  1
   O  O27  1  0.193559  0.819802  0.978366  0  .  1
   O  O28  1  0.493070  0.305689  0.039797  0  .  1
   O  O29  1  0.005147  0.991942  0.683022  0  .  1
   O  O30  1  0.669041  0.060009  0.373451  0  .  1
   O  O31  1  0.496269  0.241280  0.711347  0  .  1
   O  O32  1  0.345104  0.677270  0.300291  0  .  1
   O  O33  1  0.334658  0.650571  0.691351  0  .  1
   O  O34  1  0.806441  0.180198  0.021634  0  .  1
   O  O35  1  0.665342  0.349429  0.308649  0  .  1
   O  O36  1  0.654896  0.322730  0.699709  0  .  1
   O  O37  1  0.503731  0.758720  0.288653  0  .  1
   O  O38  1  0.330959  0.939991  0.626549  0  .  1
   O  O39  1  0.506930  0.694311  0.960203  0  .  1
   O  O40  1  0.830959  0.398090  0.373451  0  .  1
   O  O41  1  0.657224  0.625963  0.612149  0  .  1
   O  O42  1  0.693559  0.793079  0.021634  0  .  1
   O  O43  1  0.494853  0.002237  0.683022  0  .  1
   O  O44  1  0.003731  0.233818  0.711347  0  .  1
   O  O45  1  0.834658  0.680113  0.308649  0  .  1
   O  O46  1  0.845104  0.632523  0.699709  0  .  1
   O  O47  1  0.842776  0.940411  0.612149  0  .  1
   O  O48  1  0.993070  0.708171  0.960203  0  .  1
 
