#\#CIF1.1
##########################################################################
#               Crystallographic Information Format file 
#               Produced by PyCifRW module
# 
#  This is a CIF file.  CIF has been adopted by the International
#  Union of Crystallography as the standard for data archiving and 
#  transmission.
#
#  For information on this file format, follow the CIF links at
#  http://www.iucr.org
##########################################################################

data_MgV3O7
_symmetry_space_group_name_H-M          'P 1'
_cell_length_a                          10.12874811
_cell_length_b                          5.32045834
_cell_length_c                          10.2500908
_cell_angle_alpha                       90.0
_cell_angle_beta                        90.0
_cell_angle_gamma                       90.0
_chemical_name_systematic               'Generated by pymatgen'
_symmetry_Int_Tables_number             1
_chemical_formula_structural            MgV3O7
_chemical_formula_sum                   'Mg4 V12 O28'
_cell_volume                            552.373112319
_cell_formula_units_Z                   4
loop_
  _symmetry_equiv_pos_site_id
  _symmetry_equiv_pos_as_xyz
   1  'x, y, z'
 
loop_
  _atom_site_type_symbol
  _atom_site_label
  _atom_site_symmetry_multiplicity
  _atom_site_fract_x
  _atom_site_fract_y
  _atom_site_fract_z
  _atom_site_attached_hydrogens
  _atom_site_B_iso_or_equiv
  _atom_site_occupancy
   Mg  Mg1  1  0.087946  0.674852  0.750000  0  .  1
   Mg  Mg2  1  0.412054  0.174852  0.250000  0  .  1
   Mg  Mg3  1  0.587946  0.825148  0.750000  0  .  1
   Mg  Mg4  1  0.912054  0.325148  0.250000  0  .  1
   V  V5  1  0.180317  0.218427  0.025968  0  .  1
   V  V6  1  0.180317  0.218427  0.474032  0  .  1
   V  V7  1  0.211679  0.708140  0.250000  0  .  1
   V  V8  1  0.288321  0.208140  0.750000  0  .  1
   V  V9  1  0.319683  0.718427  0.525968  0  .  1
   V  V10  1  0.319683  0.718427  0.974032  0  .  1
   V  V11  1  0.680317  0.281573  0.025968  0  .  1
   V  V12  1  0.680317  0.281573  0.474032  0  .  1
   V  V13  1  0.711679  0.791860  0.250000  0  .  1
   V  V14  1  0.788321  0.291860  0.750000  0  .  1
   V  V15  1  0.819683  0.781573  0.525968  0  .  1
   V  V16  1  0.819683  0.781573  0.974032  0  .  1
   O  O17  1  0.030516  0.233362  0.092823  0  .  1
   O  O18  1  0.030516  0.233362  0.407177  0  .  1
   O  O19  1  0.048616  0.683683  0.250000  0  .  1
   O  O20  1  0.215341  0.974441  0.619153  0  .  1
   O  O21  1  0.215341  0.974441  0.880847  0  .  1
   O  O22  1  0.216438  0.458338  0.621013  0  .  1
   O  O23  1  0.216438  0.458338  0.878987  0  .  1
   O  O24  1  0.283562  0.958338  0.121013  0  .  1
   O  O25  1  0.283562  0.958338  0.378987  0  .  1
   O  O26  1  0.284659  0.474441  0.119153  0  .  1
   O  O27  1  0.284659  0.474441  0.380847  0  .  1
   O  O28  1  0.451384  0.183683  0.750000  0  .  1
   O  O29  1  0.469484  0.733362  0.592823  0  .  1
   O  O30  1  0.469484  0.733362  0.907177  0  .  1
   O  O31  1  0.530516  0.266638  0.092823  0  .  1
   O  O32  1  0.530516  0.266638  0.407177  0  .  1
   O  O33  1  0.548616  0.816317  0.250000  0  .  1
   O  O34  1  0.715341  0.525559  0.619153  0  .  1
   O  O35  1  0.715341  0.525559  0.880847  0  .  1
   O  O36  1  0.716438  0.041662  0.621013  0  .  1
   O  O37  1  0.716438  0.041662  0.878987  0  .  1
   O  O38  1  0.783562  0.541662  0.121013  0  .  1
   O  O39  1  0.783562  0.541662  0.378987  0  .  1
   O  O40  1  0.784659  0.025559  0.119153  0  .  1
   O  O41  1  0.784659  0.025559  0.380847  0  .  1
   O  O42  1  0.951384  0.316317  0.750000  0  .  1
   O  O43  1  0.969484  0.766638  0.592823  0  .  1
   O  O44  1  0.969484  0.766638  0.907177  0  .  1
 
