#\#CIF1.1
##########################################################################
#               Crystallographic Information Format file 
#               Produced by PyCifRW module
# 
#  This is a CIF file.  CIF has been adopted by the International
#  Union of Crystallography as the standard for data archiving and 
#  transmission.
#
#  For information on this file format, follow the CIF links at
#  http://www.iucr.org
##########################################################################

data_MgVO3
_symmetry_space_group_name_H-M          'P 1'
_cell_length_a                          5.34152626754
_cell_length_b                          5.20986847455
_cell_length_c                          5.81551714113
_cell_angle_alpha                       116.588147106
_cell_angle_beta                        89.9917142946
_cell_angle_gamma                       90.0225677858
_chemical_name_systematic               'Generated by pymatgen'
_symmetry_Int_Tables_number             1
_chemical_formula_structural            MgVO3
_chemical_formula_sum                   'Mg2 V2 O6'
_cell_volume                            144.723098262
_cell_formula_units_Z                   2
loop_
  _symmetry_equiv_pos_site_id
  _symmetry_equiv_pos_as_xyz
   1  'x, y, z'
 
loop_
  _atom_site_type_symbol
  _atom_site_label
  _atom_site_symmetry_multiplicity
  _atom_site_fract_x
  _atom_site_fract_y
  _atom_site_fract_z
  _atom_site_attached_hydrogens
  _atom_site_B_iso_or_equiv
  _atom_site_occupancy
   Mg  Mg1  1  0.499998  0.173932  0.347846  0  .  1
   Mg  Mg2  1  0.500002  0.826073  0.652163  0  .  1
   V  V3  1  0.999994  0.674798  0.349379  0  .  1
   V  V4  1  0.000007  0.325194  0.650604  0  .  1
   O  O5  1  0.771331  0.500054  0.500106  0  .  1
   O  O6  1  0.228762  1.000047  0.500096  0  .  1
   O  O7  1  1.000000  0.500004  0.000011  0  .  1
   O  O8  1  0.771239  0.999942  0.499901  0  .  1
   O  O9  1  0.228669  0.499955  0.499890  0  .  1
   O  O10  1  0.499999  0.000000  0.000005  0  .  1
 
