#\#CIF1.1
##########################################################################
#               Crystallographic Information Format file 
#               Produced by PyCifRW module
# 
#  This is a CIF file.  CIF has been adopted by the International
#  Union of Crystallography as the standard for data archiving and 
#  transmission.
#
#  For information on this file format, follow the CIF links at
#  http://www.iucr.org
##########################################################################

data_Mn15O32
_symmetry_space_group_name_H-M          'P 1'
_cell_length_a                          8.24156181412
_cell_length_b                          10.1035235306
_cell_length_c                          8.24156181412
_cell_angle_alpha                       65.8389998379
_cell_angle_beta                        90.2433727152
_cell_angle_gamma                       114.196946044
_chemical_name_systematic               'Generated by pymatgen'
_symmetry_Int_Tables_number             1
_chemical_formula_structural            Mn15O32
_chemical_formula_sum                   'Mn15 O32'
_cell_volume                            560.003199725
_cell_formula_units_Z                   1
loop_
  _symmetry_equiv_pos_site_id
  _symmetry_equiv_pos_as_xyz
   1  'x, y, z'
 
loop_
  _atom_site_type_symbol
  _atom_site_label
  _atom_site_symmetry_multiplicity
  _atom_site_fract_x
  _atom_site_fract_y
  _atom_site_fract_z
  _atom_site_attached_hydrogens
  _atom_site_B_iso_or_equiv
  _atom_site_occupancy
   Mn  Mn1  1  0.245331  0.000703  0.744627  0  .  1
   Mn  Mn2  1  0.754669  0.999297  0.255373  0  .  1
   Mn  Mn3  1  0.500000  0.000000  0.000000  0  .  1
   Mn  Mn4  1  0.624228  0.249288  0.625027  0  .  1
   Mn  Mn5  1  0.124200  0.247463  0.128360  0  .  1
   Mn  Mn6  1  0.374315  0.249288  0.874940  0  .  1
   Mn  Mn7  1  0.875824  0.247463  0.376737  0  .  1
   Mn  Mn8  1  0.000000  0.500000  0.500000  0  .  1
   Mn  Mn9  1  0.750464  0.500000  0.249536  0  .  1
   Mn  Mn10  1  0.249536  0.500000  0.750464  0  .  1
   Mn  Mn11  1  0.500000  0.500000  0.000000  0  .  1
   Mn  Mn12  1  0.375772  0.750712  0.374973  0  .  1
   Mn  Mn13  1  0.875800  0.752537  0.871640  0  .  1
   Mn  Mn14  1  0.124176  0.752537  0.623263  0  .  1
   Mn  Mn15  1  0.625685  0.750712  0.125060  0  .  1
   O  O16  1  0.491840  0.015256  0.756989  0  .  1
   O  O17  1  0.272245  0.015256  0.976584  0  .  1
   O  O18  1  0.753144  0.018133  0.472180  0  .  1
   O  O19  1  0.990313  0.018133  0.235011  0  .  1
   O  O20  1  0.381469  0.236293  0.645176  0  .  1
   O  O21  1  0.107114  0.251036  0.356078  0  .  1
   O  O22  1  0.602568  0.235298  0.867270  0  .  1
   O  O23  1  0.882493  0.234625  0.147868  0  .  1
   O  O24  1  0.147229  0.264755  0.882319  0  .  1
   O  O25  1  0.368098  0.263969  0.103890  0  .  1
   O  O26  1  0.647074  0.264755  0.382475  0  .  1
   O  O27  1  0.867859  0.263969  0.604129  0  .  1
   O  O28  1  0.978462  0.485327  0.272455  0  .  1
   O  O29  1  0.477251  0.484802  0.772726  0  .  1
   O  O30  1  0.757528  0.484802  0.492450  0  .  1
   O  O31  1  0.257782  0.485327  0.993135  0  .  1
   O  O32  1  0.242472  0.515198  0.507550  0  .  1
   O  O33  1  0.021538  0.514673  0.727545  0  .  1
   O  O34  1  0.742218  0.514673  0.006865  0  .  1
   O  O35  1  0.522749  0.515198  0.227274  0  .  1
   O  O36  1  0.631903  0.736031  0.896110  0  .  1
   O  O37  1  0.132141  0.736031  0.395871  0  .  1
   O  O38  1  0.352926  0.735245  0.617525  0  .  1
   O  O39  1  0.852771  0.735245  0.117681  0  .  1
   O  O40  1  0.397432  0.764702  0.132730  0  .  1
   O  O41  1  0.117507  0.765375  0.852132  0  .  1
   O  O42  1  0.892886  0.748964  0.643922  0  .  1
   O  O43  1  0.618531  0.763707  0.354824  0  .  1
   O  O44  1  0.246856  0.981867  0.527820  0  .  1
   O  O45  1  0.009687  0.981867  0.764989  0  .  1
   O  O46  1  0.727755  0.984744  0.023416  0  .  1
   O  O47  1  0.508160  0.984744  0.243011  0  .  1
 
