#\#CIF1.1
##########################################################################
#               Crystallographic Information Format file 
#               Produced by PyCifRW module
# 
#  This is a CIF file.  CIF has been adopted by the International
#  Union of Crystallography as the standard for data archiving and 
#  transmission.
#
#  For information on this file format, follow the CIF links at
#  http://www.iucr.org
##########################################################################

data_Mn21O40
_symmetry_space_group_name_H-M          'P 1'
_cell_length_a                          5.90689985123
_cell_length_b                          5.90702837905
_cell_length_c                          21.1187937088
_cell_angle_alpha                       97.7959758678
_cell_angle_beta                        82.1978419981
_cell_angle_gamma                       89.5116282275
_chemical_name_systematic               'Generated by pymatgen'
_symmetry_Int_Tables_number             1
_chemical_formula_structural            Mn21O40
_chemical_formula_sum                   'Mn21 O40'
_cell_volume                            723.040085718
_cell_formula_units_Z                   1
loop_
  _symmetry_equiv_pos_site_id
  _symmetry_equiv_pos_as_xyz
   1  'x, y, z'
 
loop_
  _atom_site_type_symbol
  _atom_site_label
  _atom_site_symmetry_multiplicity
  _atom_site_fract_x
  _atom_site_fract_y
  _atom_site_fract_z
  _atom_site_attached_hydrogens
  _atom_site_B_iso_or_equiv
  _atom_site_occupancy
   Mn  Mn1  1  0.000632  0.499167  0.499063  0  .  1
   Mn  Mn2  1  0.198678  0.300606  0.101962  0  .  1
   Mn  Mn3  1  0.099849  0.900105  0.300240  0  .  1
   Mn  Mn4  1  0.103407  0.407500  0.797791  0  .  1
   Mn  Mn5  1  0.300151  0.199764  0.399681  0  .  1
   Mn  Mn6  1  0.103758  0.894752  0.799710  0  .  1
   Mn  Mn7  1  0.300178  0.699653  0.399697  0  .  1
   Mn  Mn8  1  0.494301  0.501022  0.002876  0  .  1
   Mn  Mn9  1  0.398169  0.095989  0.695979  0  .  1
   Mn  Mn10  1  0.294474  0.704253  0.900414  0  .  1
   Mn  Mn11  1  0.500353  0.498966  0.498974  0  .  1
   Mn  Mn12  1  0.699323  0.300763  0.101605  0  .  1
   Mn  Mn13  1  0.599928  0.900067  0.300251  0  .  1
   Mn  Mn14  1  0.496144  0.998541  0.004061  0  .  1
   Mn  Mn15  1  0.570598  0.171244  0.850061  0  .  1
   Mn  Mn16  1  0.700603  0.298956  0.598402  0  .  1
   Mn  Mn17  1  0.899282  0.100315  0.200974  0  .  1
   Mn  Mn18  1  0.700416  0.798362  0.598065  0  .  1
   Mn  Mn19  1  0.899463  0.600620  0.200902  0  .  1
   Mn  Mn20  1  0.900550  0.094061  0.697197  0  .  1
   Mn  Mn21  1  0.807327  0.703678  0.902268  0  .  1
   O  O22  1  0.118844  0.346533  0.195544  0  .  1
   O  O23  1  0.113503  0.852438  0.206594  0  .  1
   O  O24  1  0.080358  0.453739  0.405336  0  .  1
   O  O25  1  0.276918  0.253472  0.008775  0  .  1
   O  O26  1  0.086181  0.947802  0.393924  0  .  1
   O  O27  1  0.143106  0.314668  0.703612  0  .  1
   O  O28  1  0.345860  0.120081  0.305893  0  .  1
   O  O29  1  0.067999  0.478769  0.892365  0  .  1
   O  O30  1  0.254515  0.279155  0.493409  0  .  1
   O  O31  1  0.452827  0.080244  0.096907  0  .  1
   O  O32  1  0.147844  0.883143  0.704041  0  .  1
   O  O33  1  0.347993  0.686081  0.305999  0  .  1
   O  O34  1  0.078134  0.934549  0.892105  0  .  1
   O  O35  1  0.252472  0.713191  0.493346  0  .  1
   O  O36  1  0.450814  0.515153  0.096218  0  .  1
   O  O37  1  0.328634  0.140673  0.790836  0  .  1
   O  O38  1  0.334240  0.678767  0.808044  0  .  1
   O  O39  1  0.514093  0.451500  0.405365  0  .  1
   O  O40  1  0.710806  0.251967  0.007987  0  .  1
   O  O41  1  0.520151  0.945650  0.394028  0  .  1
   O  O42  1  0.480013  0.052503  0.603128  0  .  1
   O  O43  1  0.486326  0.546556  0.592612  0  .  1
   O  O44  1  0.283315  0.748250  0.996093  0  .  1
   O  O45  1  0.685486  0.348703  0.195210  0  .  1
   O  O46  1  0.679463  0.854494  0.206523  0  .  1
   O  O47  1  0.529003  0.472020  0.908276  0  .  1
   O  O48  1  0.748679  0.285187  0.504775  0  .  1
   O  O49  1  0.946934  0.086468  0.107346  0  .  1
   O  O50  1  0.651581  0.310571  0.692029  0  .  1
   O  O51  1  0.851694  0.113977  0.294573  0  .  1
   O  O52  1  0.746500  0.718560  0.504443  0  .  1
   O  O53  1  0.945139  0.520304  0.107113  0  .  1
   O  O54  1  0.540215  0.929247  0.909258  0  .  1
   O  O55  1  0.653047  0.876618  0.691258  0  .  1
   O  O56  1  0.853919  0.680327  0.294619  0  .  1
   O  O57  1  0.914904  0.050471  0.603846  0  .  1
   O  O58  1  0.714904  0.743590  0.996425  0  .  1
   O  O59  1  0.920183  0.544802  0.592869  0  .  1
   O  O60  1  0.871269  0.128933  0.791785  0  .  1
   O  O61  1  0.878608  0.667808  0.807712  0  .  1
 
