#\#CIF1.1
##########################################################################
#               Crystallographic Information Format file 
#               Produced by PyCifRW module
# 
#  This is a CIF file.  CIF has been adopted by the International
#  Union of Crystallography as the standard for data archiving and 
#  transmission.
#
#  For information on this file format, follow the CIF links at
#  http://www.iucr.org
##########################################################################

data_Mn2BeO4
_symmetry_space_group_name_H-M          'P 1'
_cell_length_a                          10.1230022705
_cell_length_b                          5.9587765836
_cell_length_c                          4.63443548724
_cell_angle_alpha                       90.0008667518
_cell_angle_beta                        90.0063133903
_cell_angle_gamma                       89.9921022605
_chemical_name_systematic               'Generated by pymatgen'
_symmetry_Int_Tables_number             1
_chemical_formula_structural            Mn2BeO4
_chemical_formula_sum                   'Mn8 Be4 O16'
_cell_volume                            279.552429488
_cell_formula_units_Z                   4
loop_
  _symmetry_equiv_pos_site_id
  _symmetry_equiv_pos_as_xyz
   1  'x, y, z'
 
loop_
  _atom_site_type_symbol
  _atom_site_label
  _atom_site_symmetry_multiplicity
  _atom_site_fract_x
  _atom_site_fract_y
  _atom_site_fract_z
  _atom_site_attached_hydrogens
  _atom_site_B_iso_or_equiv
  _atom_site_occupancy
   Mn  Mn1  1  0.000032  0.999981  0.000013  0  .  1
   Mn  Mn2  1  0.000023  0.499973  0.999996  0  .  1
   Mn  Mn3  1  0.225118  0.750000  0.485285  0  .  1
   Mn  Mn4  1  0.274895  0.250033  0.985157  0  .  1
   Mn  Mn5  1  0.499966  0.000014  0.500001  0  .  1
   Mn  Mn6  1  0.499967  0.500013  0.499981  0  .  1
   Mn  Mn7  1  0.725122  0.749985  0.014821  0  .  1
   Mn  Mn8  1  0.774844  0.249999  0.514653  0  .  1
   Be  Be9  1  0.087773  0.250034  0.422806  0  .  1
   Be  Be10  1  0.412223  0.749975  0.922800  0  .  1
   Be  Be11  1  0.587796  0.250034  0.077180  0  .  1
   Be  Be12  1  0.912216  0.749969  0.577213  0  .  1
   O  O13  1  0.062735  0.749941  0.745369  0  .  1
   O  O14  1  0.086582  0.250094  0.767974  0  .  1
   O  O15  1  0.153666  0.028122  0.257322  0  .  1
   O  O16  1  0.153646  0.471904  0.257281  0  .  1
   O  O17  1  0.346336  0.528126  0.757201  0  .  1
   O  O18  1  0.346327  0.971868  0.757252  0  .  1
   O  O19  1  0.413413  0.749899  0.267922  0  .  1
   O  O20  1  0.437280  0.250054  0.245229  0  .  1
   O  O21  1  0.562681  0.749961  0.754738  0  .  1
   O  O22  1  0.586536  0.250125  0.732053  0  .  1
   O  O23  1  0.653630  0.028130  0.242804  0  .  1
   O  O24  1  0.653624  0.471900  0.242837  0  .  1
   O  O25  1  0.846398  0.528049  0.742733  0  .  1
   O  O26  1  0.846395  0.971915  0.742709  0  .  1
   O  O27  1  0.913478  0.749883  0.232037  0  .  1
   O  O28  1  0.937300  0.250021  0.254632  0  .  1
 
