#\#CIF1.1
##########################################################################
#               Crystallographic Information Format file 
#               Produced by PyCifRW module
# 
#  This is a CIF file.  CIF has been adopted by the International
#  Union of Crystallography as the standard for data archiving and 
#  transmission.
#
#  For information on this file format, follow the CIF links at
#  http://www.iucr.org
##########################################################################

data_Mn2O3
_symmetry_space_group_name_H-M          'P 1'
_cell_length_a                          8.49554053
_cell_length_b                          8.49554053
_cell_length_c                          26.16167569
_cell_angle_alpha                       90.0
_cell_angle_beta                        90.0
_cell_angle_gamma                       90.0
_chemical_name_systematic               'Generated by pymatgen'
_symmetry_Int_Tables_number             1
_chemical_formula_structural            Mn2O3
_chemical_formula_sum                   'Mn64 O96'
_cell_volume                            1888.19824634
_cell_formula_units_Z                   32
loop_
  _symmetry_equiv_pos_site_id
  _symmetry_equiv_pos_as_xyz
   1  'x, y, z'
 
loop_
  _atom_site_type_symbol
  _atom_site_label
  _atom_site_symmetry_multiplicity
  _atom_site_fract_x
  _atom_site_fract_y
  _atom_site_fract_z
  _atom_site_attached_hydrogens
  _atom_site_B_iso_or_equiv
  _atom_site_occupancy
   Mn  Mn1  1  0.998065  0.248331  0.454025  0  .  1
   Mn  Mn2  1  0.990590  0.251585  0.126137  0  .  1
   Mn  Mn3  1  0.990143  0.234829  0.791564  0  .  1
   Mn  Mn4  1  0.124227  0.867880  0.082750  0  .  1
   Mn  Mn5  1  0.132120  0.875773  0.417250  0  .  1
   Mn  Mn6  1  0.129362  0.870638  0.750000  0  .  1
   Mn  Mn7  1  0.125362  0.125362  0.000000  0  .  1
   Mn  Mn8  1  0.125761  0.623092  0.500873  0  .  1
   Mn  Mn9  1  0.126595  0.619571  0.163842  0  .  1
   Mn  Mn10  1  0.122941  0.620088  0.830575  0  .  1
   Mn  Mn11  1  0.123092  0.374239  0.250873  0  .  1
   Mn  Mn12  1  0.120088  0.377059  0.580575  0  .  1
   Mn  Mn13  1  0.119571  0.373405  0.913842  0  .  1
   Mn  Mn14  1  0.265171  0.490143  0.041564  0  .  1
   Mn  Mn15  1  0.248415  0.490590  0.376137  0  .  1
   Mn  Mn16  1  0.251669  0.498065  0.704025  0  .  1
   Mn  Mn17  1  0.248331  0.998065  0.545975  0  .  1
   Mn  Mn18  1  0.234829  0.990143  0.208436  0  .  1
   Mn  Mn19  1  0.251585  0.990590  0.873863  0  .  1
   Mn  Mn20  1  0.380429  0.873405  0.336158  0  .  1
   Mn  Mn21  1  0.379912  0.877059  0.669425  0  .  1
   Mn  Mn22  1  0.376908  0.874239  0.999127  0  .  1
   Mn  Mn23  1  0.373405  0.119571  0.086158  0  .  1
   Mn  Mn24  1  0.377059  0.120088  0.419425  0  .  1
   Mn  Mn25  1  0.374638  0.625362  0.250000  0  .  1
   Mn  Mn26  1  0.374239  0.123092  0.749127  0  .  1
   Mn  Mn27  1  0.370638  0.370638  0.500000  0  .  1
   Mn  Mn28  1  0.375773  0.367880  0.167250  0  .  1
   Mn  Mn29  1  0.367880  0.375773  0.832750  0  .  1
   Mn  Mn30  1  0.509410  0.751585  0.123863  0  .  1
   Mn  Mn31  1  0.509857  0.734829  0.458436  0  .  1
   Mn  Mn32  1  0.501935  0.748331  0.795975  0  .  1
   Mn  Mn33  1  0.498065  0.251669  0.295975  0  .  1
   Mn  Mn34  1  0.490590  0.248415  0.623863  0  .  1
   Mn  Mn35  1  0.490143  0.265171  0.958436  0  .  1
   Mn  Mn36  1  0.632120  0.624227  0.332750  0  .  1
   Mn  Mn37  1  0.624227  0.632120  0.667250  0  .  1
   Mn  Mn38  1  0.629362  0.629362  0.000000  0  .  1
   Mn  Mn39  1  0.625761  0.876908  0.249127  0  .  1
   Mn  Mn40  1  0.625362  0.374638  0.750000  0  .  1
   Mn  Mn41  1  0.626595  0.880429  0.586158  0  .  1
   Mn  Mn42  1  0.622941  0.879912  0.919425  0  .  1
   Mn  Mn43  1  0.620088  0.122941  0.169425  0  .  1
   Mn  Mn44  1  0.623092  0.125761  0.499127  0  .  1
   Mn  Mn45  1  0.619571  0.126595  0.836158  0  .  1
   Mn  Mn46  1  0.748415  0.009410  0.373863  0  .  1
   Mn  Mn47  1  0.765171  0.009857  0.708436  0  .  1
   Mn  Mn48  1  0.751669  0.001935  0.045975  0  .  1
   Mn  Mn49  1  0.748331  0.501935  0.204025  0  .  1
   Mn  Mn50  1  0.734829  0.509857  0.541564  0  .  1
   Mn  Mn51  1  0.751585  0.509410  0.876137  0  .  1
   Mn  Mn52  1  0.879912  0.622941  0.080575  0  .  1
   Mn  Mn53  1  0.880429  0.626595  0.413842  0  .  1
   Mn  Mn54  1  0.876908  0.625761  0.750873  0  .  1
   Mn  Mn55  1  0.874239  0.376908  0.000873  0  .  1
   Mn  Mn56  1  0.877059  0.379912  0.330575  0  .  1
   Mn  Mn57  1  0.873405  0.380429  0.663842  0  .  1
   Mn  Mn58  1  0.874638  0.874638  0.500000  0  .  1
   Mn  Mn59  1  0.870638  0.129362  0.250000  0  .  1
   Mn  Mn60  1  0.875773  0.132120  0.582750  0  .  1
   Mn  Mn61  1  0.867880  0.124227  0.917250  0  .  1
   Mn  Mn62  1  0.009857  0.765171  0.291564  0  .  1
   Mn  Mn63  1  0.009410  0.748415  0.626137  0  .  1
   Mn  Mn64  1  0.001935  0.751669  0.954025  0  .  1
   O  O65  1  0.114591  0.638583  0.079232  0  .  1
   O  O66  1  0.114321  0.639037  0.424098  0  .  1
   O  O67  1  0.115618  0.632527  0.753734  0  .  1
   O  O68  1  0.106060  0.387237  0.323005  0  .  1
   O  O69  1  0.102956  0.397445  0.653513  0  .  1
   O  O70  1  0.118725  0.356300  0.996541  0  .  1
   O  O71  1  0.143700  0.618725  0.246541  0  .  1
   O  O72  1  0.112763  0.606060  0.573005  0  .  1
   O  O73  1  0.102555  0.602956  0.903513  0  .  1
   O  O74  1  0.138432  0.888962  0.003721  0  .  1
   O  O75  1  0.156015  0.856255  0.344722  0  .  1
   O  O76  1  0.156487  0.858384  0.675432  0  .  1
   O  O77  1  0.096952  0.148757  0.579525  0  .  1
   O  O78  1  0.094457  0.140886  0.245395  0  .  1
   O  O79  1  0.096902  0.133370  0.915047  0  .  1
   O  O80  1  0.143745  0.843985  0.155278  0  .  1
   O  O81  1  0.111038  0.861568  0.496279  0  .  1
   O  O82  1  0.141616  0.843513  0.824568  0  .  1
   O  O83  1  0.133370  0.096902  0.084953  0  .  1
   O  O84  1  0.148757  0.096952  0.420475  0  .  1
   O  O85  1  0.140886  0.094457  0.754605  0  .  1
   O  O86  1  0.132527  0.384382  0.503734  0  .  1
   O  O87  1  0.139037  0.385679  0.174098  0  .  1
   O  O88  1  0.138583  0.385409  0.829232  0  .  1
   O  O89  1  0.360963  0.885679  0.075902  0  .  1
   O  O90  1  0.361417  0.885409  0.420768  0  .  1
   O  O91  1  0.367473  0.884382  0.746266  0  .  1
   O  O92  1  0.366630  0.596902  0.165047  0  .  1
   O  O93  1  0.359114  0.594457  0.495395  0  .  1
   O  O94  1  0.351243  0.596952  0.829525  0  .  1
   O  O95  1  0.356255  0.343985  0.094722  0  .  1
   O  O96  1  0.358384  0.343513  0.425432  0  .  1
   O  O97  1  0.388962  0.361568  0.753721  0  .  1
   O  O98  1  0.405543  0.640886  0.004605  0  .  1
   O  O99  1  0.403098  0.633370  0.334953  0  .  1
   O  O100  1  0.403048  0.648757  0.670475  0  .  1
   O  O101  1  0.361568  0.388962  0.246279  0  .  1
   O  O102  1  0.343513  0.358384  0.574568  0  .  1
   O  O103  1  0.343985  0.356255  0.905278  0  .  1
   O  O104  1  0.397445  0.102956  0.346487  0  .  1
   O  O105  1  0.387237  0.106060  0.676995  0  .  1
   O  O106  1  0.356300  0.118725  0.003459  0  .  1
   O  O107  1  0.381275  0.856300  0.253459  0  .  1
   O  O108  1  0.393940  0.887237  0.926995  0  .  1
   O  O109  1  0.397044  0.897445  0.596487  0  .  1
   O  O110  1  0.384382  0.132527  0.496266  0  .  1
   O  O111  1  0.385409  0.138583  0.170768  0  .  1
   O  O112  1  0.385679  0.139037  0.825902  0  .  1
   O  O113  1  0.614321  0.860963  0.325902  0  .  1
   O  O114  1  0.614591  0.861417  0.670768  0  .  1
   O  O115  1  0.615618  0.867473  0.996266  0  .  1
   O  O116  1  0.602956  0.102555  0.096487  0  .  1
   O  O117  1  0.606060  0.112763  0.426995  0  .  1
   O  O118  1  0.618725  0.143700  0.753459  0  .  1
   O  O119  1  0.643700  0.881275  0.503459  0  .  1
   O  O120  1  0.612763  0.893940  0.176995  0  .  1
   O  O121  1  0.602555  0.897044  0.846487  0  .  1
   O  O122  1  0.656487  0.641616  0.074568  0  .  1
   O  O123  1  0.656015  0.643745  0.405278  0  .  1
   O  O124  1  0.638432  0.611038  0.746279  0  .  1
   O  O125  1  0.596952  0.351243  0.170475  0  .  1
   O  O126  1  0.594457  0.359114  0.504605  0  .  1
   O  O127  1  0.596902  0.366630  0.834953  0  .  1
   O  O128  1  0.611038  0.638432  0.253721  0  .  1
   O  O129  1  0.643745  0.656015  0.594722  0  .  1
   O  O130  1  0.641616  0.656487  0.925432  0  .  1
   O  O131  1  0.648757  0.403048  0.329525  0  .  1
   O  O132  1  0.633370  0.403098  0.665047  0  .  1
   O  O133  1  0.640886  0.405543  0.995395  0  .  1
   O  O134  1  0.632527  0.115618  0.246266  0  .  1
   O  O135  1  0.639037  0.114321  0.575902  0  .  1
   O  O136  1  0.638583  0.114591  0.920768  0  .  1
   O  O137  1  0.861417  0.614591  0.329232  0  .  1
   O  O138  1  0.860963  0.614321  0.674098  0  .  1
   O  O139  1  0.867473  0.615618  0.003734  0  .  1
   O  O140  1  0.859114  0.905543  0.254605  0  .  1
   O  O141  1  0.866630  0.903098  0.584953  0  .  1
   O  O142  1  0.851243  0.903048  0.920475  0  .  1
   O  O143  1  0.856255  0.156015  0.655278  0  .  1
   O  O144  1  0.858384  0.156487  0.324568  0  .  1
   O  O145  1  0.888962  0.138432  0.996279  0  .  1
   O  O146  1  0.903048  0.851243  0.079525  0  .  1
   O  O147  1  0.903098  0.866630  0.415047  0  .  1
   O  O148  1  0.905543  0.859114  0.745395  0  .  1
   O  O149  1  0.843513  0.141616  0.175432  0  .  1
   O  O150  1  0.861568  0.111038  0.503721  0  .  1
   O  O151  1  0.843985  0.143745  0.844722  0  .  1
   O  O152  1  0.887237  0.393940  0.073005  0  .  1
   O  O153  1  0.897445  0.397044  0.403513  0  .  1
   O  O154  1  0.856300  0.381275  0.746541  0  .  1
   O  O155  1  0.881275  0.643700  0.496541  0  .  1
   O  O156  1  0.897044  0.602555  0.153513  0  .  1
   O  O157  1  0.893940  0.612763  0.823005  0  .  1
   O  O158  1  0.884382  0.367473  0.253734  0  .  1
   O  O159  1  0.885409  0.361417  0.579232  0  .  1
   O  O160  1  0.885679  0.360963  0.924098  0  .  1
 
