#\#CIF1.1
##########################################################################
#               Crystallographic Information Format file 
#               Produced by PyCifRW module
# 
#  This is a CIF file.  CIF has been adopted by the International
#  Union of Crystallography as the standard for data archiving and 
#  transmission.
#
#  For information on this file format, follow the CIF links at
#  http://www.iucr.org
##########################################################################

data_Mn2V3O12
_symmetry_space_group_name_H-M          'P 1'
_cell_length_a                          8.73193187657
_cell_length_b                          12.277010456
_cell_length_c                          9.01217085
_cell_angle_alpha                       90.0
_cell_angle_beta                        90.0
_cell_angle_gamma                       90.6509669929
_chemical_name_systematic               'Generated by pymatgen'
_symmetry_Int_Tables_number             1
_chemical_formula_structural            Mn2V3O12
_chemical_formula_sum                   'Mn8 V12 O48'
_cell_volume                            966.060555369
_cell_formula_units_Z                   4
loop_
  _symmetry_equiv_pos_site_id
  _symmetry_equiv_pos_as_xyz
   1  'x, y, z'
 
loop_
  _atom_site_type_symbol
  _atom_site_label
  _atom_site_symmetry_multiplicity
  _atom_site_fract_x
  _atom_site_fract_y
  _atom_site_fract_z
  _atom_site_attached_hydrogens
  _atom_site_B_iso_or_equiv
  _atom_site_occupancy
   Mn  Mn1  1  0.251731  0.883765  0.025701  0  .  1
   Mn  Mn2  1  0.248269  0.616235  0.525701  0  .  1
   Mn  Mn3  1  0.252550  0.380916  0.971387  0  .  1
   Mn  Mn4  1  0.247450  0.119084  0.471387  0  .  1
   Mn  Mn5  1  0.752550  0.880916  0.528613  0  .  1
   Mn  Mn6  1  0.747450  0.619084  0.028613  0  .  1
   Mn  Mn7  1  0.751731  0.383765  0.474299  0  .  1
   Mn  Mn8  1  0.748269  0.116235  0.974299  0  .  1
   V  V9  1  0.032735  0.490151  0.248617  0  .  1
   V  V10  1  0.107794  0.852439  0.381907  0  .  1
   V  V11  1  0.112115  0.141645  0.112077  0  .  1
   V  V12  1  0.392206  0.647561  0.881907  0  .  1
   V  V13  1  0.387885  0.358355  0.612077  0  .  1
   V  V14  1  0.467265  0.009849  0.748617  0  .  1
   V  V15  1  0.532735  0.990151  0.251383  0  .  1
   V  V16  1  0.612115  0.641645  0.387923  0  .  1
   V  V17  1  0.607794  0.352439  0.118093  0  .  1
   V  V18  1  0.887885  0.858355  0.887923  0  .  1
   V  V19  1  0.892206  0.147561  0.618093  0  .  1
   V  V20  1  0.967265  0.509849  0.751383  0  .  1
   O  O21  1  0.079980  0.443033  0.875760  0  .  1
   O  O22  1  0.081365  0.898977  0.892263  0  .  1
   O  O23  1  0.075289  0.613022  0.659186  0  .  1
   O  O24  1  0.079066  0.182396  0.570137  0  .  1
   O  O25  1  0.102731  0.587980  0.372444  0  .  1
   O  O26  1  0.124804  0.844720  0.188080  0  .  1
   O  O27  1  0.143892  0.984804  0.435121  0  .  1
   O  O28  1  0.137749  0.251050  0.994497  0  .  1
   O  O29  1  0.167737  0.175149  0.290563  0  .  1
   O  O30  1  0.184710  0.429924  0.159182  0  .  1
   O  O31  1  0.235769  0.766904  0.473637  0  .  1
   O  O32  1  0.264231  0.733096  0.973637  0  .  1
   O  O33  1  0.231770  0.035992  0.057847  0  .  1
   O  O34  1  0.268230  0.464008  0.557847  0  .  1
   O  O35  1  0.315290  0.070076  0.659182  0  .  1
   O  O36  1  0.332263  0.324851  0.790563  0  .  1
   O  O37  1  0.356108  0.515196  0.935121  0  .  1
   O  O38  1  0.362251  0.248950  0.494497  0  .  1
   O  O39  1  0.375196  0.655280  0.688080  0  .  1
   O  O40  1  0.397269  0.912020  0.872444  0  .  1
   O  O41  1  0.424711  0.886978  0.159186  0  .  1
   O  O42  1  0.418635  0.601023  0.392263  0  .  1
   O  O43  1  0.420934  0.317604  0.070137  0  .  1
   O  O44  1  0.420020  0.056967  0.375760  0  .  1
   O  O45  1  0.579980  0.943033  0.624240  0  .  1
   O  O46  1  0.579066  0.682396  0.929863  0  .  1
   O  O47  1  0.581365  0.398977  0.607737  0  .  1
   O  O48  1  0.575289  0.113022  0.840814  0  .  1
   O  O49  1  0.602731  0.087980  0.127556  0  .  1
   O  O50  1  0.624804  0.344720  0.311920  0  .  1
   O  O51  1  0.637749  0.751050  0.505503  0  .  1
   O  O52  1  0.643892  0.484804  0.064879  0  .  1
   O  O53  1  0.667737  0.675149  0.209437  0  .  1
   O  O54  1  0.684710  0.929924  0.340818  0  .  1
   O  O55  1  0.731770  0.535992  0.442153  0  .  1
   O  O56  1  0.768230  0.964008  0.942153  0  .  1
   O  O57  1  0.735769  0.266904  0.026363  0  .  1
   O  O58  1  0.764231  0.233096  0.526363  0  .  1
   O  O59  1  0.815290  0.570076  0.840818  0  .  1
   O  O60  1  0.832263  0.824851  0.709437  0  .  1
   O  O61  1  0.862251  0.748950  0.005503  0  .  1
   O  O62  1  0.856108  0.015196  0.564879  0  .  1
   O  O63  1  0.875196  0.155280  0.811920  0  .  1
   O  O64  1  0.897269  0.412020  0.627556  0  .  1
   O  O65  1  0.920934  0.817604  0.429863  0  .  1
   O  O66  1  0.924711  0.386978  0.340814  0  .  1
   O  O67  1  0.918635  0.101023  0.107737  0  .  1
   O  O68  1  0.920020  0.556967  0.124240  0  .  1
 
