#\#CIF1.1
##########################################################################
#               Crystallographic Information Format file 
#               Produced by PyCifRW module
# 
#  This is a CIF file.  CIF has been adopted by the International
#  Union of Crystallography as the standard for data archiving and 
#  transmission.
#
#  For information on this file format, follow the CIF links at
#  http://www.iucr.org
##########################################################################

data_Mn7O12
_symmetry_space_group_name_H-M          'P 1'
_cell_length_a                          6.38808314309
_cell_length_b                          6.38794896281
_cell_length_c                          6.3880717794
_cell_angle_alpha                       109.468075367
_cell_angle_beta                        109.469409067
_cell_angle_gamma                       109.475211279
_chemical_name_systematic               'Generated by pymatgen'
_symmetry_Int_Tables_number             1
_chemical_formula_structural            Mn7O12
_chemical_formula_sum                   'Mn7 O12'
_cell_volume                            200.671210907
_cell_formula_units_Z                   1
loop_
  _symmetry_equiv_pos_site_id
  _symmetry_equiv_pos_as_xyz
   1  'x, y, z'
 
loop_
  _atom_site_type_symbol
  _atom_site_label
  _atom_site_symmetry_multiplicity
  _atom_site_fract_x
  _atom_site_fract_y
  _atom_site_fract_z
  _atom_site_attached_hydrogens
  _atom_site_B_iso_or_equiv
  _atom_site_occupancy
   Mn  Mn1  1  0.000012  0.500005  0.500012  0  .  1
   Mn  Mn2  1  0.999992  0.500019  0.000003  0  .  1
   Mn  Mn3  1  -0.000004  -0.000009  0.499980  0  .  1
   Mn  Mn4  1  0.499988  0.499999  0.500004  0  .  1
   Mn  Mn5  1  0.500014  0.000004  0.500006  0  .  1
   Mn  Mn6  1  0.499994  0.499998  0.000001  0  .  1
   Mn  Mn7  1  0.499984  -0.000012  0.999998  0  .  1
   O  O8  1  0.189796  0.872360  0.682565  0  .  1
   O  O9  1  0.127642  0.317436  0.810209  0  .  1
   O  O10  1  0.189807  0.507229  0.317424  0  .  1
   O  O11  1  0.317419  0.810172  0.127629  0  .  1
   O  O12  1  0.492763  0.682565  0.810204  0  .  1
   O  O13  1  0.317431  0.189771  0.507190  0  .  1
   O  O14  1  0.682572  0.810223  0.492805  0  .  1
   O  O15  1  0.507237  0.317431  0.189795  0  .  1
   O  O16  1  0.682587  0.189831  0.872374  0  .  1
   O  O17  1  0.810197  0.492770  0.682578  0  .  1
   O  O18  1  0.872359  0.682566  0.189787  0  .  1
   O  O19  1  0.810212  0.127642  0.317438  0  .  1
 
