#\#CIF1.1
##########################################################################
#               Crystallographic Information Format file 
#               Produced by PyCifRW module
# 
#  This is a CIF file.  CIF has been adopted by the International
#  Union of Crystallography as the standard for data archiving and 
#  transmission.
#
#  For information on this file format, follow the CIF links at
#  http://www.iucr.org
##########################################################################

data_MnO2
_symmetry_space_group_name_H-M          'P 1'
_cell_length_a                          2.92321558368
_cell_length_b                          8.96171484503
_cell_length_c                          7.14072000676
_cell_angle_alpha                       89.1688694471
_cell_angle_beta                        101.809572187
_cell_angle_gamma                       89.983621393
_chemical_name_systematic               'Generated by pymatgen'
_symmetry_Int_Tables_number             1
_chemical_formula_structural            MnO2
_chemical_formula_sum                   'Mn6 O12'
_cell_volume                            183.08576165
_cell_formula_units_Z                   6
loop_
  _symmetry_equiv_pos_site_id
  _symmetry_equiv_pos_as_xyz
   1  'x, y, z'
 
loop_
  _atom_site_type_symbol
  _atom_site_label
  _atom_site_symmetry_multiplicity
  _atom_site_fract_x
  _atom_site_fract_y
  _atom_site_fract_z
  _atom_site_attached_hydrogens
  _atom_site_B_iso_or_equiv
  _atom_site_occupancy
   Mn  Mn1  1  0.342898  0.253511  0.681161  0  .  1
   Mn  Mn2  1  0.344995  0.752015  0.682296  0  .  1
   Mn  Mn3  1  0.659561  0.248065  0.315113  0  .  1
   Mn  Mn4  1  0.660165  0.748818  0.315138  0  .  1
   Mn  Mn5  1  0.001896  0.000755  0.997863  0  .  1
   Mn  Mn6  1  0.002499  0.500532  0.998913  0  .  1
   O  O7  1  0.557069  0.106952  0.108746  0  .  1
   O  O8  1  0.557531  0.607796  0.109314  0  .  1
   O  O9  1  0.446547  0.394587  0.887315  0  .  1
   O  O10  1  0.447102  0.893958  0.887887  0  .  1
   O  O11  1  0.107509  0.360080  0.210968  0  .  1
   O  O12  1  0.110768  0.864368  0.216374  0  .  1
   O  O13  1  0.895216  0.141558  0.785260  0  .  1
   O  O14  1  0.897752  0.640933  0.787758  0  .  1
   O  O15  1  0.223511  0.145655  0.442667  0  .  1
   O  O16  1  0.224580  0.645480  0.443076  0  .  1
   O  O17  1  0.778756  0.356138  0.553473  0  .  1
   O  O18  1  0.781492  0.854395  0.556065  0  .  1
 
