#\#CIF1.1
##########################################################################
#               Crystallographic Information Format file 
#               Produced by PyCifRW module
# 
#  This is a CIF file.  CIF has been adopted by the International
#  Union of Crystallography as the standard for data archiving and 
#  transmission.
#
#  For information on this file format, follow the CIF links at
#  http://www.iucr.org
##########################################################################

data_MnS2
_symmetry_space_group_name_H-M          'P 1'
_cell_length_a                          5.94911925021
_cell_length_b                          6.01742544
_cell_length_c                          6.02812746022
_cell_angle_alpha                       90.0
_cell_angle_beta                        90.0009633983
_cell_angle_gamma                       90.0
_chemical_name_systematic               'Generated by pymatgen'
_symmetry_Int_Tables_number             1
_chemical_formula_structural            MnS2
_chemical_formula_sum                   'Mn4 S8'
_cell_volume                            215.797206652
_cell_formula_units_Z                   4
loop_
  _symmetry_equiv_pos_site_id
  _symmetry_equiv_pos_as_xyz
   1  'x, y, z'
 
loop_
  _atom_site_type_symbol
  _atom_site_label
  _atom_site_symmetry_multiplicity
  _atom_site_fract_x
  _atom_site_fract_y
  _atom_site_fract_z
  _atom_site_attached_hydrogens
  _atom_site_B_iso_or_equiv
  _atom_site_occupancy
   Mn  Mn1  1  0.500000  0.500000  0.000000  0  .  1
   Mn  Mn2  1  0.500000  0.000000  0.500000  0  .  1
   Mn  Mn3  1  0.000000  0.000000  0.000000  0  .  1
   Mn  Mn4  1  0.000000  0.500000  0.500000  0  .  1
   S  S5  1  0.603900  0.600373  0.599973  0  .  1
   S  S6  1  0.396100  0.100373  0.900027  0  .  1
   S  S7  1  0.396100  0.399627  0.400027  0  .  1
   S  S8  1  0.103923  0.600368  0.900024  0  .  1
   S  S9  1  0.103923  0.899632  0.400024  0  .  1
   S  S10  1  0.896077  0.100368  0.599976  0  .  1
   S  S11  1  0.896077  0.399632  0.099976  0  .  1
   S  S12  1  0.603900  0.899627  0.099973  0  .  1
 
