#\#CIF1.1
##########################################################################
#               Crystallographic Information Format file 
#               Produced by PyCifRW module
# 
#  This is a CIF file.  CIF has been adopted by the International
#  Union of Crystallography as the standard for data archiving and 
#  transmission.
#
#  For information on this file format, follow the CIF links at
#  http://www.iucr.org
##########################################################################

data_MnV2O6
_symmetry_space_group_name_H-M          'P 1'
_cell_length_a                          6.94416463692
_cell_length_b                          6.94416535489
_cell_length_c                          5.93628877206
_cell_angle_alpha                       74.4054595829
_cell_angle_beta                        105.594532234
_cell_angle_gamma                       95.8311003042
_chemical_name_systematic               'Generated by pymatgen'
_symmetry_Int_Tables_number             1
_chemical_formula_structural            MnV2O6
_chemical_formula_sum                   'Mn2 V4 O12'
_cell_volume                            265.436279195
_cell_formula_units_Z                   2
loop_
  _symmetry_equiv_pos_site_id
  _symmetry_equiv_pos_as_xyz
   1  'x, y, z'
 
loop_
  _atom_site_type_symbol
  _atom_site_label
  _atom_site_symmetry_multiplicity
  _atom_site_fract_x
  _atom_site_fract_y
  _atom_site_fract_z
  _atom_site_attached_hydrogens
  _atom_site_B_iso_or_equiv
  _atom_site_occupancy
   Mn  Mn1  1  0.088304  0.088304  0.750000  0  .  1
   Mn  Mn2  1  0.911696  0.911696  0.250000  0  .  1
   V  V3  1  0.209038  0.611307  0.764385  0  .  1
   V  V4  1  0.388693  0.790962  0.264385  0  .  1
   V  V5  1  0.611307  0.209038  0.735615  0  .  1
   V  V6  1  0.790962  0.388693  0.235615  0  .  1
   O  O7  1  0.039973  0.800470  0.643828  0  .  1
   O  O8  1  0.092264  0.384938  0.791186  0  .  1
   O  O9  1  0.199530  0.960027  0.143828  0  .  1
   O  O10  1  0.362750  0.642371  0.555501  0  .  1
   O  O11  1  0.384938  0.092264  0.708814  0  .  1
   O  O12  1  0.357629  0.637250  0.055501  0  .  1
   O  O13  1  0.642371  0.362750  0.944499  0  .  1
   O  O14  1  0.615062  0.907736  0.291186  0  .  1
   O  O15  1  0.637250  0.357629  0.444499  0  .  1
   O  O16  1  0.800470  0.039973  0.856172  0  .  1
   O  O17  1  0.907736  0.615062  0.208814  0  .  1
   O  O18  1  0.960027  0.199530  0.356172  0  .  1
 
