#\#CIF1.1
##########################################################################
#               Crystallographic Information Format file 
#               Produced by PyCifRW module
# 
#  This is a CIF file.  CIF has been adopted by the International
#  Union of Crystallography as the standard for data archiving and 
#  transmission.
#
#  For information on this file format, follow the CIF links at
#  http://www.iucr.org
##########################################################################

data_MnV5O12
_symmetry_space_group_name_H-M          'P 1'
_cell_length_a                          6.89428855241
_cell_length_b                          6.89428816656
_cell_length_c                          5.88416793996
_cell_angle_alpha                       74.9202849053
_cell_angle_beta                        105.079717265
_cell_angle_gamma                       95.611039304
_chemical_name_systematic               'Generated by pymatgen'
_symmetry_Int_Tables_number             1
_chemical_formula_structural            MnV5O12
_chemical_formula_sum                   'Mn1 V5 O12'
_cell_volume                            260.615645726
_cell_formula_units_Z                   1
loop_
  _symmetry_equiv_pos_site_id
  _symmetry_equiv_pos_as_xyz
   1  'x, y, z'
 
loop_
  _atom_site_type_symbol
  _atom_site_label
  _atom_site_symmetry_multiplicity
  _atom_site_fract_x
  _atom_site_fract_y
  _atom_site_fract_z
  _atom_site_attached_hydrogens
  _atom_site_B_iso_or_equiv
  _atom_site_occupancy
   Mn  Mn1  1  0.911870  0.911870  0.250000  0  .  1
   V  V2  1  0.085687  0.085687  0.750000  0  .  1
   V  V3  1  0.208848  0.609591  0.767980  0  .  1
   V  V4  1  0.388126  0.793297  0.261634  0  .  1
   V  V5  1  0.609591  0.208848  0.732020  0  .  1
   V  V6  1  0.793297  0.388126  0.238367  0  .  1
   O  O7  1  0.038947  0.802318  0.653655  0  .  1
   O  O8  1  0.098222  0.378133  0.786508  0  .  1
   O  O9  1  0.193320  0.960029  0.129905  0  .  1
   O  O10  1  0.362121  0.649015  0.554159  0  .  1
   O  O11  1  0.378133  0.098222  0.713492  0  .  1
   O  O12  1  0.361806  0.631921  0.059410  0  .  1
   O  O13  1  0.649015  0.362121  0.945841  0  .  1
   O  O14  1  0.613927  0.912821  0.287134  0  .  1
   O  O15  1  0.631921  0.361806  0.440590  0  .  1
   O  O16  1  0.802318  0.038947  0.846345  0  .  1
   O  O17  1  0.912821  0.613927  0.212866  0  .  1
   O  O18  1  0.960029  0.193320  0.370095  0  .  1
 
