#\#CIF1.1
##########################################################################
#               Crystallographic Information Format file 
#               Produced by PyCifRW module
# 
#  This is a CIF file.  CIF has been adopted by the International
#  Union of Crystallography as the standard for data archiving and 
#  transmission.
#
#  For information on this file format, follow the CIF links at
#  http://www.iucr.org
##########################################################################

data_Na(CoO2)3
_symmetry_space_group_name_H-M          'P 1'
_cell_length_a                          9.3270199077
_cell_length_b                          5.3849574039
_cell_length_c                          4.93631813731
_cell_angle_alpha                       56.9450724074
_cell_angle_beta                        50.9629292216
_cell_angle_gamma                       29.9999989932
_chemical_name_systematic               'Generated by pymatgen'
_symmetry_Int_Tables_number             1
_chemical_formula_structural            Na(CoO2)3
_chemical_formula_sum                   'Na2 Co6 O12'
_cell_volume                            96.28823145
_cell_formula_units_Z                   2
loop_
  _symmetry_equiv_pos_site_id
  _symmetry_equiv_pos_as_xyz
   1  'x, y, z'
 
loop_
  _atom_site_type_symbol
  _atom_site_label
  _atom_site_symmetry_multiplicity
  _atom_site_fract_x
  _atom_site_fract_y
  _atom_site_fract_z
  _atom_site_attached_hydrogens
  _atom_site_B_iso_or_equiv
  _atom_site_occupancy
   Na  Na1  1  0.101758  0.333333  0.694726  0  .  1
   Na  Na2  1  0.731575  0.333333  0.805274  0  .  1
   Co  Co3  1  0.015328  0.972579  0.001224  0  .  1
   Co  Co4  1  0.178760  0.972579  0.498776  0  .  1
   Co  Co5  1  0.328875  0.019786  0.001224  0  .  1
   Co  Co6  1  0.654574  0.007635  0.001224  0  .  1
   Co  Co7  1  0.504458  0.007635  0.498776  0  .  1
   Co  Co8  1  0.818005  0.019786  0.498776  0  .  1
   O  O9  1  0.968276  0.333333  0.095173  0  .  1
   O  O10  1  0.591609  0.333333  0.225174  0  .  1
   O  O11  1  0.680215  0.630310  -0.007311  0  .  1
   O  O12  1  0.856142  0.630310  0.507311  0  .  1
   O  O13  1  0.482859  0.333333  0.551422  0  .  1
   O  O14  1  0.350474  0.333333  0.948578  0  .  1
   O  O15  1  0.977192  0.706046  -0.007311  0  .  1
   O  O16  1  0.153118  0.663645  0.507311  0  .  1
   O  O17  1  0.241724  0.333333  0.274826  0  .  1
   O  O18  1  0.865058  0.333333  0.404827  0  .  1
   O  O19  1  0.349904  0.663645  -0.007311  0  .  1
   O  O20  1  0.483429  0.706046  0.507311  0  .  1
 
