#\#CIF1.1
##########################################################################
#               Crystallographic Information Format file 
#               Produced by PyCifRW module
# 
#  This is a CIF file.  CIF has been adopted by the International
#  Union of Crystallography as the standard for data archiving and 
#  transmission.
#
#  For information on this file format, follow the CIF links at
#  http://www.iucr.org
##########################################################################

data_Na(CoO2)2
_symmetry_space_group_name_H-M          'P 1'
_cell_length_a                          4.87695538
_cell_length_b                          5.64495409
_cell_length_c                          11.38451949
_cell_angle_alpha                       90.0
_cell_angle_beta                        90.0
_cell_angle_gamma                       90.0
_chemical_name_systematic               'Generated by pymatgen'
_symmetry_Int_Tables_number             1
_chemical_formula_structural            Na(CoO2)2
_chemical_formula_sum                   'Na4 Co8 O16'
_cell_volume                            313.417975728
_cell_formula_units_Z                   4
loop_
  _symmetry_equiv_pos_site_id
  _symmetry_equiv_pos_as_xyz
   1  'x, y, z'
 
loop_
  _atom_site_type_symbol
  _atom_site_label
  _atom_site_symmetry_multiplicity
  _atom_site_fract_x
  _atom_site_fract_y
  _atom_site_fract_z
  _atom_site_attached_hydrogens
  _atom_site_B_iso_or_equiv
  _atom_site_occupancy
   O  O1  1  0.836943  0.998662  0.410794  0  .  1
   O  O2  1  0.836943  0.501338  0.089206  0  .  1
   O  O3  1  0.163057  0.498662  0.589206  0  .  1
   O  O4  1  0.163057  0.001338  0.910794  0  .  1
   O  O5  1  0.163057  0.001338  0.589206  0  .  1
   O  O6  1  0.163057  0.498662  0.910794  0  .  1
   O  O7  1  0.836943  0.501338  0.410794  0  .  1
   O  O8  1  0.836943  0.998662  0.089206  0  .  1
   O  O9  1  0.676641  0.250000  0.584836  0  .  1
   O  O10  1  0.676641  0.250000  0.915164  0  .  1
   O  O11  1  0.323359  0.750000  0.415164  0  .  1
   O  O12  1  0.323359  0.750000  0.084836  0  .  1
   O  O13  1  0.331226  0.250000  0.088111  0  .  1
   O  O14  1  0.331226  0.250000  0.411889  0  .  1
   O  O15  1  0.668774  0.750000  0.911889  0  .  1
   O  O16  1  0.668774  0.750000  0.588111  0  .  1
   Na  Na17  1  0.639678  0.250000  0.250000  0  .  1
   Na  Na18  1  0.360322  0.750000  0.750000  0  .  1
   Na  Na19  1  0.037159  0.750000  0.250000  0  .  1
   Na  Na20  1  0.962841  0.250000  0.750000  0  .  1
   Co  Co21  1  0.500000  0.000000  0.500000  0  .  1
   Co  Co22  1  0.500000  0.500000  0.000000  0  .  1
   Co  Co23  1  0.500000  0.500000  0.500000  0  .  1
   Co  Co24  1  0.500000  0.000000  0.000000  0  .  1
   Co  Co25  1  0.997074  0.750000  0.502916  0  .  1
   Co  Co26  1  0.997074  0.750000  0.997084  0  .  1
   Co  Co27  1  0.002926  0.250000  0.497084  0  .  1
   Co  Co28  1  0.002926  0.250000  0.002916  0  .  1
 
