#\#CIF1.1
##########################################################################
#               Crystallographic Information Format file 
#               Produced by PyCifRW module
# 
#  This is a CIF file.  CIF has been adopted by the International
#  Union of Crystallography as the standard for data archiving and 
#  transmission.
#
#  For information on this file format, follow the CIF links at
#  http://www.iucr.org
##########################################################################

data_Na(CoO2)8
_symmetry_space_group_name_H-M          'P 1'
_cell_length_a                          6.71111267562
_cell_length_b                          15.3970878707
_cell_length_c                          7.17682183594
_cell_angle_alpha                       50.9439917799
_cell_angle_beta                        102.945648666
_cell_angle_gamma                       98.4285849259
_chemical_name_systematic               'Generated by pymatgen'
_symmetry_Int_Tables_number             1
_chemical_formula_structural            Na(CoO2)8
_chemical_formula_sum                   'Na2 Co16 O32'
_cell_volume                            561.217811912
_cell_formula_units_Z                   2
loop_
  _symmetry_equiv_pos_site_id
  _symmetry_equiv_pos_as_xyz
   1  'x, y, z'
 
loop_
  _atom_site_type_symbol
  _atom_site_label
  _atom_site_symmetry_multiplicity
  _atom_site_fract_x
  _atom_site_fract_y
  _atom_site_fract_z
  _atom_site_attached_hydrogens
  _atom_site_B_iso_or_equiv
  _atom_site_occupancy
   Na  Na1  1  0.132921  0.090936  0.057020  0  .  1
   Na  Na2  1  0.367079  0.909064  0.942980  0  .  1
   Co  Co3  1  0.876536  0.864055  0.417210  0  .  1
   Co  Co4  1  0.957983  0.632747  0.100368  0  .  1
   Co  Co5  1  0.100108  0.704077  0.426025  0  .  1
   Co  Co6  1  0.250000  0.500000  0.000000  0  .  1
   Co  Co7  1  0.464523  0.816409  0.538028  0  .  1
   Co  Co8  1  0.453141  0.640445  0.036743  0  .  1
   Co  Co9  1  0.399892  0.295923  0.573975  0  .  1
   Co  Co10  1  0.542017  0.367253  0.899632  0  .  1
   Co  Co11  1  0.639669  0.681123  0.415212  0  .  1
   Co  Co12  1  0.750000  0.500000  0.000000  0  .  1
   Co  Co13  1  0.690075  0.121811  0.129604  0  .  1
   Co  Co14  1  0.623464  0.135945  0.582790  0  .  1
   Co  Co15  1  0.860331  0.318877  0.584788  0  .  1
   Co  Co16  1  0.046859  0.359555  0.963257  0  .  1
   Co  Co17  1  0.035477  0.183591  0.461972  0  .  1
   Co  Co18  1  0.809925  0.878189  0.870396  0  .  1
   O  O19  1  0.266467  0.318436  0.894868  0  .  1
   O  O20  1  0.401651  0.122054  0.778600  0  .  1
   O  O21  1  0.901949  0.711195  0.554883  0  .  1
   O  O22  1  0.186822  0.108873  0.414125  0  .  1
   O  O23  1  0.115817  0.869151  0.618769  0  .  1
   O  O24  1  0.311399  0.702083  0.281655  0  .  1
   O  O25  1  0.446321  0.069843  0.031033  0  .  1
   O  O26  1  0.187630  0.324822  0.298640  0  .  1
   O  O27  1  0.312370  0.675178  0.701360  0  .  1
   O  O28  1  0.053679  0.930157  0.968967  0  .  1
   O  O29  1  0.188601  0.297917  0.718345  0  .  1
   O  O30  1  0.806450  0.379775  0.027155  0  .  1
   O  O31  1  0.598051  0.288805  0.445117  0  .  1
   O  O32  1  0.384183  0.130849  0.381231  0  .  1
   O  O33  1  0.313178  0.891127  0.585875  0  .  1
   O  O34  1  0.098349  0.877946  0.221400  0  .  1
   O  O35  1  0.505412  0.498347  0.372529  0  .  1
   O  O36  1  0.902957  0.170531  0.683379  0  .  1
   O  O37  1  0.017579  0.538431  0.040527  0  .  1
   O  O38  1  0.631204  0.278651  0.828620  0  .  1
   O  O39  1  0.845965  0.019511  0.200546  0  .  1
   O  O40  1  0.233533  0.681564  0.105132  0  .  1
   O  O41  1  0.769688  0.144875  0.354091  0  .  1
   O  O42  1  0.938882  0.477782  0.462820  0  .  1
   O  O43  1  0.730312  0.855125  0.645909  0  .  1
   O  O44  1  0.561118  0.522218  0.537180  0  .  1
   O  O45  1  0.654035  0.980489  0.799454  0  .  1
   O  O46  1  0.868796  0.721349  0.171380  0  .  1
   O  O47  1  0.482421  0.461569  0.959473  0  .  1
   O  O48  1  0.597043  0.829469  0.316621  0  .  1
   O  O49  1  0.994588  0.501653  0.627471  0  .  1
   O  O50  1  0.693550  0.620225  0.972845  0  .  1
 
