#\#CIF1.1
##########################################################################
#               Crystallographic Information Format file 
#               Produced by PyCifRW module
# 
#  This is a CIF file.  CIF has been adopted by the International
#  Union of Crystallography as the standard for data archiving and 
#  transmission.
#
#  For information on this file format, follow the CIF links at
#  http://www.iucr.org
##########################################################################

data_Na(CuO)2
_symmetry_space_group_name_H-M          'P 1'
_cell_length_a                          2.98108134
_cell_length_b                          6.20003417
_cell_length_c                          13.29617444
_cell_angle_alpha                       90.0
_cell_angle_beta                        90.0
_cell_angle_gamma                       90.0
_chemical_name_systematic               'Generated by pymatgen'
_symmetry_Int_Tables_number             1
_chemical_formula_structural            Na(CuO)2
_chemical_formula_sum                   'Na4 Cu8 O8'
_cell_volume                            245.750614998
_cell_formula_units_Z                   4
loop_
  _symmetry_equiv_pos_site_id
  _symmetry_equiv_pos_as_xyz
   1  'x, y, z'
 
loop_
  _atom_site_type_symbol
  _atom_site_label
  _atom_site_symmetry_multiplicity
  _atom_site_fract_x
  _atom_site_fract_y
  _atom_site_fract_z
  _atom_site_attached_hydrogens
  _atom_site_B_iso_or_equiv
  _atom_site_occupancy
   Cu  Cu1  1  0.750000  0.866334  0.387083  0  .  1
   Cu  Cu2  1  0.250000  0.133666  0.612917  0  .  1
   Cu  Cu3  1  0.750000  0.366334  0.112917  0  .  1
   Cu  Cu4  1  0.250000  0.633666  0.887083  0  .  1
   Cu  Cu5  1  0.750000  0.386473  0.742040  0  .  1
   Cu  Cu6  1  0.250000  0.613527  0.257960  0  .  1
   Cu  Cu7  1  0.750000  0.886473  0.757960  0  .  1
   Cu  Cu8  1  0.250000  0.113527  0.242040  0  .  1
   Na  Na9  1  0.750000  0.351295  0.422488  0  .  1
   Na  Na10  1  0.250000  0.648705  0.577512  0  .  1
   Na  Na11  1  0.750000  0.851295  0.077512  0  .  1
   Na  Na12  1  0.250000  0.148705  0.922488  0  .  1
   O  O13  1  0.750000  0.351679  0.602609  0  .  1
   O  O14  1  0.250000  0.648321  0.397391  0  .  1
   O  O15  1  0.750000  0.851679  0.897391  0  .  1
   O  O16  1  0.250000  0.148321  0.102609  0  .  1
   O  O17  1  0.750000  0.920934  0.620020  0  .  1
   O  O18  1  0.250000  0.079066  0.379980  0  .  1
   O  O19  1  0.750000  0.420934  0.879980  0  .  1
   O  O20  1  0.250000  0.579066  0.120020  0  .  1
 
