#\#CIF1.1
##########################################################################
#               Crystallographic Information Format file 
#               Produced by PyCifRW module
# 
#  This is a CIF file.  CIF has been adopted by the International
#  Union of Crystallography as the standard for data archiving and 
#  transmission.
#
#  For information on this file format, follow the CIF links at
#  http://www.iucr.org
##########################################################################

data_Na(VS2)2
_symmetry_space_group_name_H-M          'P 1'
_cell_length_a                          7.23362491854
_cell_length_b                          14.7261566934
_cell_length_c                          14.3297894208
_cell_angle_alpha                       13.3235751638
_cell_angle_beta                        23.468439184
_cell_angle_gamma                       26.7994422954
_chemical_name_systematic               'Generated by pymatgen'
_symmetry_Int_Tables_number             1
_chemical_formula_structural            Na(VS2)2
_chemical_formula_sum                   'Na1 V2 S4'
_cell_volume                            140.091337679
_cell_formula_units_Z                   1
loop_
  _symmetry_equiv_pos_site_id
  _symmetry_equiv_pos_as_xyz
   1  'x, y, z'
 
loop_
  _atom_site_type_symbol
  _atom_site_label
  _atom_site_symmetry_multiplicity
  _atom_site_fract_x
  _atom_site_fract_y
  _atom_site_fract_z
  _atom_site_attached_hydrogens
  _atom_site_B_iso_or_equiv
  _atom_site_occupancy
   Na  Na1  1  0.818619  0.500000  0.841155  0  .  1
   V  V2  1  0.055821  0.000000  0.973841  0  .  1
   V  V3  1  0.953266  0.500000  0.030288  0  .  1
   S  S4  1  0.424738  0.000000  0.383723  0  .  1
   S  S5  1  0.590372  0.000000  0.603458  0  .  1
   S  S6  1  0.420727  0.500000  0.398129  0  .  1
   S  S7  1  0.586457  0.500000  0.619407  0  .  1
 
