#\#CIF1.1
##########################################################################
#               Crystallographic Information Format file 
#               Produced by PyCifRW module
# 
#  This is a CIF file.  CIF has been adopted by the International
#  Union of Crystallography as the standard for data archiving and 
#  transmission.
#
#  For information on this file format, follow the CIF links at
#  http://www.iucr.org
##########################################################################

data_Na10Mn2O9
_symmetry_space_group_name_H-M          'P 1'
_cell_length_a                          6.24213067045
_cell_length_b                          6.55809480637
_cell_length_c                          9.48161840824
_cell_angle_alpha                       89.8984870188
_cell_angle_beta                        88.4606358894
_cell_angle_gamma                       61.2928344129
_chemical_name_systematic               'Generated by pymatgen'
_symmetry_Int_Tables_number             1
_chemical_formula_structural            Na10Mn2O9
_chemical_formula_sum                   'Na10 Mn2 O9'
_cell_volume                            340.285526443
_cell_formula_units_Z                   1
loop_
  _symmetry_equiv_pos_site_id
  _symmetry_equiv_pos_as_xyz
   1  'x, y, z'
 
loop_
  _atom_site_type_symbol
  _atom_site_label
  _atom_site_symmetry_multiplicity
  _atom_site_fract_x
  _atom_site_fract_y
  _atom_site_fract_z
  _atom_site_attached_hydrogens
  _atom_site_B_iso_or_equiv
  _atom_site_occupancy
   Na  Na1  1  0.072243  0.934621  0.199419  0  .  1
   Na  Na2  1  0.998784  0.037665  0.733295  0  .  1
   Na  Na3  1  0.065605  0.282641  0.419555  0  .  1
   Na  Na4  1  0.321026  0.646556  0.442700  0  .  1
   Na  Na5  1  0.629537  0.089247  0.424228  0  .  1
   Na  Na6  1  0.318819  0.699153  0.917259  0  .  1
   Na  Na7  1  0.618106  0.305347  0.087319  0  .  1
   Na  Na8  1  0.006850  0.344109  0.954307  0  .  1
   Na  Na9  1  0.677639  0.934367  0.922678  0  .  1
   Na  Na10  1  0.852380  0.695316  0.605846  0  .  1
   Mn  Mn11  1  0.349715  0.332059  0.722951  0  .  1
   Mn  Mn12  1  0.675681  0.674827  0.253042  0  .  1
   O  O13  1  0.973816  0.020424  0.979311  0  .  1
   O  O14  1  0.082734  0.322243  0.663527  0  .  1
   O  O15  1  0.371691  0.319792  0.912418  0  .  1
   O  O16  1  0.257961  0.632690  0.672639  0  .  1
   O  O17  1  0.631553  0.071335  0.670588  0  .  1
   O  O18  1  0.402608  0.922496  0.330065  0  .  1
   O  O19  1  0.692511  0.392464  0.311331  0  .  1
   O  O20  1  0.656660  0.643326  0.065764  0  .  1
   O  O21  1  0.916014  0.709717  0.346927  0  .  1
 
