#\#CIF1.1
##########################################################################
#               Crystallographic Information Format file 
#               Produced by PyCifRW module
# 
#  This is a CIF file.  CIF has been adopted by the International
#  Union of Crystallography as the standard for data archiving and 
#  transmission.
#
#  For information on this file format, follow the CIF links at
#  http://www.iucr.org
##########################################################################

data_Na10Fe4O9
_symmetry_space_group_name_H-M          'P 1'
_cell_length_a                          8.82443542074
_cell_length_b                          8.80055591239
_cell_length_c                          8.80055545329
_cell_angle_alpha                       78.0753279168
_cell_angle_beta                        77.2586273533
_cell_angle_gamma                       77.2586280242
_chemical_name_systematic               'Generated by pymatgen'
_symmetry_Int_Tables_number             1
_chemical_formula_structural            Na10Fe4O9
_chemical_formula_sum                   'Na20 Fe8 O18'
_cell_volume                            641.178056657
_cell_formula_units_Z                   2
loop_
  _symmetry_equiv_pos_site_id
  _symmetry_equiv_pos_as_xyz
   1  'x, y, z'
 
loop_
  _atom_site_type_symbol
  _atom_site_label
  _atom_site_symmetry_multiplicity
  _atom_site_fract_x
  _atom_site_fract_y
  _atom_site_fract_z
  _atom_site_attached_hydrogens
  _atom_site_B_iso_or_equiv
  _atom_site_occupancy
   Fe  Fe1  1  0.093934  0.088580  0.088580  0  .  1
   Fe  Fe2  1  0.178804  0.467343  0.467343  0  .  1
   Fe  Fe3  1  0.464306  0.172921  0.471903  0  .  1
   Fe  Fe4  1  0.464306  0.471903  0.172921  0  .  1
   Fe  Fe5  1  0.532051  0.823285  0.535805  0  .  1
   Fe  Fe6  1  0.532051  0.535805  0.823285  0  .  1
   Fe  Fe7  1  0.834570  0.532313  0.532313  0  .  1
   Fe  Fe8  1  0.923757  0.902837  0.902837  0  .  1
   Na  Na9  1  0.019637  0.737708  0.267573  0  .  1
   Na  Na10  1  0.116022  0.125695  0.434062  0  .  1
   Na  Na11  1  0.116022  0.434062  0.125695  0  .  1
   Na  Na12  1  0.269583  0.989872  0.729755  0  .  1
   Na  Na13  1  0.269583  0.729755  0.989872  0  .  1
   Na  Na14  1  0.186206  0.536752  0.798004  0  .  1
   Na  Na15  1  0.186206  0.798004  0.536752  0  .  1
   Na  Na16  1  0.438057  0.143196  0.143196  0  .  1
   Na  Na17  1  0.391496  0.220394  0.838687  0  .  1
   Na  Na18  1  0.391496  0.838687  0.220394  0  .  1
   Na  Na19  1  0.495934  0.501985  0.501985  0  .  1
   Na  Na20  1  0.735710  0.261404  0.994758  0  .  1
   Na  Na21  1  0.745775  0.146044  0.691508  0  .  1
   Na  Na22  1  0.745775  0.691508  0.146044  0  .  1
   Na  Na23  1  0.568506  0.880562  0.880562  0  .  1
   Na  Na24  1  0.848741  0.283925  0.283925  0  .  1
   Na  Na25  1  0.735710  0.994758  0.261404  0  .  1
   Na  Na26  1  0.863394  0.558077  0.872522  0  .  1
   Na  Na27  1  0.863394  0.872522  0.558077  0  .  1
   Na  Na28  1  0.019637  0.267573  0.737708  0  .  1
   O  O29  1  0.009469  0.695183  0.007215  0  .  1
   O  O30  1  0.009469  0.007215  0.695183  0  .  1
   O  O31  1  0.009903  0.610968  0.610968  0  .  1
   O  O32  1  0.297131  0.613743  0.302637  0  .  1
   O  O33  1  0.297131  0.302637  0.613743  0  .  1
   O  O34  1  0.379480  0.406559  0.992425  0  .  1
   O  O35  1  0.379480  0.992425  0.406559  0  .  1
   O  O36  1  0.711965  -0.000034  -0.000034  0  .  1
   O  O37  1  0.385527  0.694822  0.694822  0  .  1
   O  O38  1  0.591604  0.274226  0.274226  0  .  1
   O  O39  1  0.304261  0.992950  0.992950  0  .  1
   O  O40  1  0.593323  0.620609  0.003181  0  .  1
   O  O41  1  0.593323  0.003181  0.620609  0  .  1
   O  O42  1  0.723055  0.719345  0.400199  0  .  1
   O  O43  1  0.723055  0.400199  0.719345  0  .  1
   O  O44  1  0.005708  0.392195  0.392195  0  .  1
   O  O45  1  0.988325  0.296551  1.001655  0  .  1
   O  O46  1  0.988325  1.001655  0.296551  0  .  1
 
