#\#CIF1.1
##########################################################################
#               Crystallographic Information Format file 
#               Produced by PyCifRW module
# 
#  This is a CIF file.  CIF has been adopted by the International
#  Union of Crystallography as the standard for data archiving and 
#  transmission.
#
#  For information on this file format, follow the CIF links at
#  http://www.iucr.org
##########################################################################

data_Na10Co4O9
_symmetry_space_group_name_H-M          'P 1'
_cell_length_a                          8.43117953161
_cell_length_b                          8.52508705534
_cell_length_c                          11.4827508335
_cell_angle_alpha                       86.3780718556
_cell_angle_beta                        69.8056653291
_cell_angle_gamma                       61.1959386999
_chemical_name_systematic               'Generated by pymatgen'
_symmetry_Int_Tables_number             1
_chemical_formula_structural            Na10Co4O9
_chemical_formula_sum                   'Na20 Co8 O18'
_cell_volume                            673.404120221
_cell_formula_units_Z                   2
loop_
  _symmetry_equiv_pos_site_id
  _symmetry_equiv_pos_as_xyz
   1  'x, y, z'
 
loop_
  _atom_site_type_symbol
  _atom_site_label
  _atom_site_symmetry_multiplicity
  _atom_site_fract_x
  _atom_site_fract_y
  _atom_site_fract_z
  _atom_site_attached_hydrogens
  _atom_site_B_iso_or_equiv
  _atom_site_occupancy
   Na  Na1  1  0.861263  0.322526  0.880466  0  .  1
   Na  Na2  1  0.629700  0.162341  0.636693  0  .  1
   Na  Na3  1  0.476180  0.425051  0.878124  0  .  1
   Na  Na4  1  0.370300  0.837659  0.363307  0  .  1
   Na  Na5  1  0.652704  0.419971  0.372923  0  .  1
   Na  Na6  1  0.173455  0.340872  0.629331  0  .  1
   Na  Na7  1  0.098720  0.225586  0.381507  0  .  1
   Na  Na8  1  0.347296  0.580029  0.627077  0  .  1
   Na  Na9  1  0.005347  0.630257  0.856145  0  .  1
   Na  Na10  1  0.733431  0.024937  0.886009  0  .  1
   Na  Na11  1  0.844711  0.113477  0.114246  0  .  1
   Na  Na12  1  0.523820  0.574949  0.121876  0  .  1
   Na  Na13  1  0.138737  0.677474  0.119534  0  .  1
   Na  Na14  1  0.826545  0.659128  0.370669  0  .  1
   Na  Na15  1  0.501750  0.115427  0.391617  0  .  1
   Na  Na16  1  0.498250  0.884573  0.608383  0  .  1
   Na  Na17  1  0.155289  0.886523  0.885754  0  .  1
   Na  Na18  1  0.266569  0.975063  0.113991  0  .  1
   Na  Na19  1  0.994653  0.369743  0.143855  0  .  1
   Na  Na20  1  0.901280  0.774414  0.618493  0  .  1
   Co  Co21  1  0.575709  0.752883  0.849887  0  .  1
   Co  Co22  1  0.424291  0.247117  0.150113  0  .  1
   Co  Co23  1  0.936925  0.967022  0.355935  0  .  1
   Co  Co24  1  0.290483  0.187693  0.856838  0  .  1
   Co  Co25  1  0.709517  0.812307  0.143162  0  .  1
   Co  Co26  1  0.063075  0.032978  0.644065  0  .  1
   Co  Co27  1  0.241551  0.535061  0.349160  0  .  1
   Co  Co28  1  0.758449  0.464939  0.650840  0  .  1
   O  O29  1  0.553069  0.968079  0.785661  0  .  1
   O  O30  1  0.841219  0.564392  0.751822  0  .  1
   O  O31  1  0.351403  0.429280  0.462268  0  .  1
   O  O32  1  0.251058  0.065913  0.526673  0  .  1
   O  O33  1  0.092387  0.167900  0.972081  0  .  1
   O  O34  1  0.648597  0.570720  0.537732  0  .  1
   O  O35  1  0.201780  0.755135  0.283254  0  .  1
   O  O36  1  0.940093  0.157386  0.274467  0  .  1
   O  O37  1  0.158781  0.435608  0.248178  0  .  1
   O  O38  1  0.446931  0.031921  0.214339  0  .  1
   O  O39  1  0.309671  0.372376  0.772810  0  .  1
   O  O40  1  0.059907  0.842614  0.725533  0  .  1
   O  O41  1  0.398208  0.708579  0.966383  0  .  1
   O  O42  1  0.690329  0.627624  0.227190  0  .  1
   O  O43  1  0.748942  0.934087  0.473327  0  .  1
   O  O44  1  0.798220  0.244865  0.716746  0  .  1
   O  O45  1  0.907613  0.832100  0.027919  0  .  1
   O  O46  1  0.601792  0.291421  0.033617  0  .  1
 
