#\#CIF1.1
##########################################################################
#               Crystallographic Information Format file 
#               Produced by PyCifRW module
# 
#  This is a CIF file.  CIF has been adopted by the International
#  Union of Crystallography as the standard for data archiving and 
#  transmission.
#
#  For information on this file format, follow the CIF links at
#  http://www.iucr.org
##########################################################################

data_Na11Mn13O32
_symmetry_space_group_name_H-M          'P 1'
_cell_length_a                          6.06473023675
_cell_length_b                          6.06473023675
_cell_length_c                          21.0944365349
_cell_angle_alpha                       96.538129624
_cell_angle_beta                        91.522995046
_cell_angle_gamma                       120.764510839
_chemical_name_systematic               'Generated by pymatgen'
_symmetry_Int_Tables_number             1
_chemical_formula_structural            Na11Mn13O32
_chemical_formula_sum                   'Na11 Mn13 O32'
_cell_volume                            659.076685269
_cell_formula_units_Z                   1
loop_
  _symmetry_equiv_pos_site_id
  _symmetry_equiv_pos_as_xyz
   1  'x, y, z'
 
loop_
  _atom_site_type_symbol
  _atom_site_label
  _atom_site_symmetry_multiplicity
  _atom_site_fract_x
  _atom_site_fract_y
  _atom_site_fract_z
  _atom_site_attached_hydrogens
  _atom_site_B_iso_or_equiv
  _atom_site_occupancy
   Na  Na1  1  0.218750  0.937500  0.156250  0  .  1
   Na  Na2  1  0.009777  0.998714  0.008491  0  .  1
   Na  Na3  1  0.695040  0.371168  0.066208  0  .  1
   Na  Na4  1  0.427723  0.876286  0.304009  0  .  1
   Na  Na5  1  0.742460  0.503832  0.246292  0  .  1
   Na  Na6  1  0.181865  0.378439  0.560303  0  .  1
   Na  Na7  1  0.841844  0.684496  0.526340  0  .  1
   Na  Na8  1  0.503910  0.993247  0.497157  0  .  1
   Na  Na9  1  0.255635  0.496561  0.752197  0  .  1
   Na  Na10  1  0.933590  0.881753  0.815343  0  .  1
   Na  Na11  1  0.595656  0.190504  0.786160  0  .  1
   Mn  Mn12  1  0.356674  0.679262  0.035936  0  .  1
   Mn  Mn13  1  0.718750  0.937500  0.156250  0  .  1
   Mn  Mn14  1  0.218750  0.437500  0.156250  0  .  1
   Mn  Mn15  1  0.080826  0.195738  0.276564  0  .  1
   Mn  Mn16  1  0.466629  0.435065  0.396668  0  .  1
   Mn  Mn17  1  0.218750  0.937500  0.656250  0  .  1
   Mn  Mn18  1  0.961602  0.930039  0.396668  0  .  1
   Mn  Mn19  1  0.962097  0.435393  0.397490  0  .  1
   Mn  Mn20  1  0.718750  0.937500  0.656250  0  .  1
   Mn  Mn21  1  0.475898  0.944961  0.915832  0  .  1
   Mn  Mn22  1  0.718750  0.437500  0.656250  0  .  1
   Mn  Mn23  1  0.475403  0.439607  0.915010  0  .  1
   Mn  Mn24  1  0.970871  0.439935  0.915832  0  .  1
   O  O25  1  0.095948  0.554457  0.090113  0  .  1
   O  O26  1  0.420232  0.781174  0.201406  0  .  1
   O  O27  1  0.520347  0.583377  0.103724  0  .  1
   O  O28  1  0.017268  0.093826  0.111094  0  .  1
   O  O29  1  0.901844  0.880834  0.222387  0  .  1
   O  O30  1  0.341552  0.320543  0.222387  0  .  1
   O  O31  1  0.117298  0.782032  0.442489  0  .  1
   O  O32  1  0.246997  0.515700  0.343325  0  .  1
   O  O33  1  0.535656  0.994166  0.090113  0  .  1
   O  O34  1  0.245672  0.094654  0.340326  0  .  1
   O  O35  1  0.150025  0.295239  0.445265  0  .  1
   O  O36  1  0.015651  0.593664  0.609315  0  .  1
   O  O37  1  0.663845  0.778371  0.442215  0  .  1
   O  O38  1  0.917153  0.291623  0.208776  0  .  1
   O  O39  1  0.779314  0.570673  0.349986  0  .  1
   O  O40  1  0.660457  0.325191  0.442489  0  .  1
   O  O41  1  0.423357  0.839508  0.703578  0  .  1
   O  O42  1  0.827625  0.096329  0.343325  0  .  1
   O  O43  1  0.014143  0.035492  0.608922  0  .  1
   O  O44  1  0.573432  0.594779  0.608922  0  .  1
   O  O45  1  0.905027  0.801158  0.706185  0  .  1
   O  O46  1  0.421849  0.281336  0.703185  0  .  1
   O  O47  1  0.287475  0.579761  0.867235  0  .  1
   O  O48  1  0.191828  0.780346  0.972174  0  .  1
   O  O49  1  0.532473  0.073842  0.606315  0  .  1
   O  O50  1  0.190503  0.359300  0.969175  0  .  1
   O  O51  1  0.609875  0.778671  0.969175  0  .  1
   O  O52  1  0.864068  0.280220  0.703578  0  .  1
   O  O53  1  0.320202  0.092968  0.870011  0  .  1
   O  O54  1  0.777043  0.549809  0.870011  0  .  1
   O  O55  1  0.773655  0.096629  0.870285  0  .  1
   O  O56  1  0.658186  0.304327  0.962514  0  .  1
 
