#\#CIF1.1
##########################################################################
#               Crystallographic Information Format file 
#               Produced by PyCifRW module
# 
#  This is a CIF file.  CIF has been adopted by the International
#  Union of Crystallography as the standard for data archiving and 
#  transmission.
#
#  For information on this file format, follow the CIF links at
#  http://www.iucr.org
##########################################################################

data_Na13Ti24O54
_symmetry_space_group_name_H-M          'P 1'
_cell_length_a                          11.734922492
_cell_length_b                          11.1333918969
_cell_length_c                          8.85964908191
_cell_angle_alpha                       74.6052144445
_cell_angle_beta                        82.7014501078
_cell_angle_gamma                       75.9846313384
_chemical_name_systematic               'Generated by pymatgen'
_symmetry_Int_Tables_number             1
_chemical_formula_structural            Na13Ti24O54
_chemical_formula_sum                   'Na13 Ti24 O54'
_cell_volume                            1080.31620653
_cell_formula_units_Z                   1
loop_
  _symmetry_equiv_pos_site_id
  _symmetry_equiv_pos_as_xyz
   1  'x, y, z'
 
loop_
  _atom_site_type_symbol
  _atom_site_label
  _atom_site_symmetry_multiplicity
  _atom_site_fract_x
  _atom_site_fract_y
  _atom_site_fract_z
  _atom_site_attached_hydrogens
  _atom_site_B_iso_or_equiv
  _atom_site_occupancy
   Na  Na1  1  0.140557  0.694576  0.427597  0  .  1
   Na  Na2  1  0.143161  0.697091  0.062033  0  .  1
   Na  Na3  1  0.272775  0.404658  0.819645  0  .  1
   Na  Na4  1  0.274636  0.395760  0.156413  0  .  1
   Na  Na5  1  0.272655  0.397065  0.487934  0  .  1
   Na  Na6  1  0.283862  0.901044  0.469448  0  .  1
   Na  Na7  1  0.283055  0.900852  0.834297  0  .  1
   Na  Na8  1  0.717070  0.099640  0.840101  0  .  1
   Na  Na9  1  0.726478  0.594871  0.514153  0  .  1
   Na  Na10  1  0.728442  0.602151  0.845050  0  .  1
   Na  Na11  1  0.724901  0.602424  0.177839  0  .  1
   Na  Na12  1  0.858406  0.305173  0.907451  0  .  1
   Na  Na13  1  0.853409  0.294290  0.282824  0  .  1
   Ti  Ti14  1  0.000988  0.997512  0.000642  0  .  1
   Ti  Ti15  1  0.998038  0.001314  0.332761  0  .  1
   Ti  Ti16  1  0.998855  0.002161  0.665805  0  .  1
   Ti  Ti17  1  0.990924  0.491803  0.504122  0  .  1
   Ti  Ti18  1  0.009413  0.508225  0.828393  0  .  1
   Ti  Ti19  1  0.999624  0.497554  0.167144  0  .  1
   Ti  Ti20  1  0.123793  0.185555  0.083884  0  .  1
   Ti  Ti21  1  0.122050  0.188445  0.416569  0  .  1
   Ti  Ti22  1  0.120365  0.191969  0.750249  0  .  1
   Ti  Ti23  1  0.427221  0.116928  0.055846  0  .  1
   Ti  Ti24  1  0.433627  0.124606  0.385655  0  .  1
   Ti  Ti25  1  0.430333  0.122784  0.719941  0  .  1
   Ti  Ti26  1  0.445778  0.625895  0.551732  0  .  1
   Ti  Ti27  1  0.445437  0.623387  0.883526  0  .  1
   Ti  Ti28  1  0.442095  0.626627  0.217273  0  .  1
   Ti  Ti29  1  0.552666  0.375630  0.781618  0  .  1
   Ti  Ti30  1  0.556252  0.372582  0.116081  0  .  1
   Ti  Ti31  1  0.557615  0.374179  0.450370  0  .  1
   Ti  Ti32  1  0.571842  0.880454  0.278462  0  .  1
   Ti  Ti33  1  0.573469  0.882060  0.610819  0  .  1
   Ti  Ti34  1  0.568283  0.874447  0.947933  0  .  1
   Ti  Ti35  1  0.876249  0.812666  0.250883  0  .  1
   Ti  Ti36  1  0.878336  0.812151  0.581315  0  .  1
   Ti  Ti37  1  0.879637  0.807859  0.917764  0  .  1
   O  O38  1  0.060961  0.305955  0.888346  0  .  1
   O  O39  1  0.059791  0.304612  0.222432  0  .  1
   O  O40  1  0.060460  0.305717  0.553944  0  .  1
   O  O41  1  0.149842  0.057683  0.953165  0  .  1
   O  O42  1  0.150716  0.056051  0.290800  0  .  1
   O  O43  1  0.151343  0.054741  0.624727  0  .  1
   O  O44  1  0.109584  0.510989  0.642715  0  .  1
   O  O45  1  0.111789  0.512985  0.979171  0  .  1
   O  O46  1  0.106986  0.516994  0.308839  0  .  1
   O  O47  1  0.044212  0.873329  0.201038  0  .  1
   O  O48  1  0.049033  0.876400  0.869303  0  .  1
   O  O49  1  0.045377  0.876907  0.531437  0  .  1
   O  O50  1  0.273890  0.219473  0.046633  0  .  1
   O  O51  1  0.274481  0.216278  0.382513  0  .  1
   O  O52  1  0.273523  0.218569  0.715675  0  .  1
   O  O53  1  0.407057  0.008998  0.264180  0  .  1
   O  O54  1  0.405813  0.008809  0.597088  0  .  1
   O  O55  1  0.404748  0.008310  0.927377  0  .  1
   O  O56  1  0.342629  0.680676  0.384782  0  .  1
   O  O57  1  0.346911  0.687933  0.712756  0  .  1
   O  O58  1  0.342684  0.681072  0.047471  0  .  1
   O  O59  1  0.429555  0.447733  0.614115  0  .  1
   O  O60  1  0.430250  0.448085  0.278625  0  .  1
   O  O61  1  0.428959  0.447302  0.944632  0  .  1
   O  O62  1  0.487260  0.216327  0.847396  0  .  1
   O  O63  1  0.481578  0.221519  0.178399  0  .  1
   O  O64  1  0.482592  0.221873  0.512291  0  .  1
   O  O65  1  0.513872  0.782879  0.485800  0  .  1
   O  O66  1  0.512939  0.782483  0.820132  0  .  1
   O  O67  1  0.517728  0.777674  0.155123  0  .  1
   O  O68  1  0.569287  0.553987  0.720677  0  .  1
   O  O69  1  0.568393  0.553706  0.388580  0  .  1
   O  O70  1  0.567619  0.553936  0.052085  0  .  1
   O  O71  1  0.655678  0.321069  0.948289  0  .  1
   O  O72  1  0.655897  0.327982  0.280342  0  .  1
   O  O73  1  0.653250  0.319714  0.620109  0  .  1
   O  O74  1  0.591552  0.989974  0.068375  0  .  1
   O  O75  1  0.592594  0.990844  0.404694  0  .  1
   O  O76  1  0.593475  0.990703  0.739567  0  .  1
   O  O77  1  0.726247  0.779713  0.285868  0  .  1
   O  O78  1  0.726991  0.780216  0.618950  0  .  1
   O  O79  1  0.726806  0.781047  0.951321  0  .  1
   O  O80  1  0.957160  0.126413  0.132072  0  .  1
   O  O81  1  0.958535  0.123918  0.465308  0  .  1
   O  O82  1  0.953152  0.123716  0.801475  0  .  1
   O  O83  1  0.890791  0.488881  0.690691  0  .  1
   O  O84  1  0.892679  0.483566  0.024697  0  .  1
   O  O85  1  0.887908  0.486789  0.354394  0  .  1
   O  O86  1  0.851607  0.939951  0.377984  0  .  1
   O  O87  1  0.852822  0.940373  0.714542  0  .  1
   O  O88  1  0.850675  0.941333  0.041103  0  .  1
   O  O89  1  0.938345  0.694247  0.445725  0  .  1
   O  O90  1  0.940245  0.694430  0.778246  0  .  1
   O  O91  1  0.940871  0.694597  0.111571  0  .  1
 
