#\#CIF1.1
##########################################################################
#               Crystallographic Information Format file 
#               Produced by PyCifRW module
# 
#  This is a CIF file.  CIF has been adopted by the International
#  Union of Crystallography as the standard for data archiving and 
#  transmission.
#
#  For information on this file format, follow the CIF links at
#  http://www.iucr.org
##########################################################################

data_Na13Ni11O24
_symmetry_space_group_name_H-M          'P 1'
_cell_length_a                          8.12968634882
_cell_length_b                          8.21773010769
_cell_length_c                          9.04936902769
_cell_angle_alpha                       72.8020081939
_cell_angle_beta                        77.5391888153
_cell_angle_gamma                       111.59197869
_chemical_name_systematic               'Generated by pymatgen'
_symmetry_Int_Tables_number             1
_chemical_formula_structural            Na13Ni11O24
_chemical_formula_sum                   'Na13 Ni11 O24'
_cell_volume                            499.872336435
_cell_formula_units_Z                   1
loop_
  _symmetry_equiv_pos_site_id
  _symmetry_equiv_pos_as_xyz
   1  'x, y, z'
 
loop_
  _atom_site_type_symbol
  _atom_site_label
  _atom_site_symmetry_multiplicity
  _atom_site_fract_x
  _atom_site_fract_y
  _atom_site_fract_z
  _atom_site_attached_hydrogens
  _atom_site_B_iso_or_equiv
  _atom_site_occupancy
   Na  Na1  1  0.579787  0.966589  0.120678  0  .  1
   Na  Na2  1  0.751981  0.872918  0.372582  0  .  1
   Na  Na3  1  0.917672  0.793118  0.632998  0  .  1
   Na  Na4  1  0.833523  0.582945  0.250225  0  .  1
   Na  Na5  1  0.077958  0.704218  0.880215  0  .  1
   Na  Na6  1  0.420443  0.543573  0.371072  0  .  1
   Na  Na7  1  0.245774  0.622824  0.129243  0  .  1
   Na  Na8  1  0.749017  0.373598  0.866857  0  .  1
   Na  Na9  1  0.589030  0.462426  0.619645  0  .  1
   Na  Na10  1  0.914609  0.294014  0.127898  0  .  1
   Na  Na11  1  0.248257  0.122692  0.628848  0  .  1
   Na  Na12  1  0.418728  0.043915  0.870877  0  .  1
   Na  Na13  1  0.086518  0.200463  0.379310  0  .  1
   Ni  Ni14  1  0.165202  0.914985  0.252005  0  .  1
   Ni  Ni15  1  0.499300  0.749981  0.748775  0  .  1
   Ni  Ni16  1  0.336029  0.834053  0.499126  0  .  1
   Ni  Ni17  1  0.662110  0.666865  0.996442  0  .  1
   Ni  Ni18  1  0.167271  0.416706  0.751171  0  .  1
   Ni  Ni19  1  0.004582  0.499751  0.503314  0  .  1
   Ni  Ni20  1  0.501462  0.251705  0.247977  0  .  1
   Ni  Ni21  1  0.833300  0.083396  0.749953  0  .  1
   Ni  Ni22  1  0.671099  0.168957  0.498592  0  .  1
   Ni  Ni23  1  0.330577  0.332545  0.000947  0  .  1
   Ni  Ni24  1  0.995573  0.997757  0.001299  0  .  1
   O  O25  1  0.771361  0.996202  0.583571  0  .  1
   O  O26  1  0.941149  0.915140  0.830019  0  .  1
   O  O27  1  0.396668  0.920343  0.665689  0  .  1
   O  O28  1  0.557948  0.836091  0.915482  0  .  1
   O  O29  1  0.918164  0.688133  0.433161  0  .  1
   O  O30  1  0.721847  0.779015  0.147953  0  .  1
   O  O31  1  0.120638  0.847057  0.071746  0  .  1
   O  O32  1  0.600460  0.579233  0.830079  0  .  1
   O  O33  1  0.441190  0.664086  0.579869  0  .  1
   O  O34  1  0.276583  0.750615  0.329699  0  .  1
   O  O35  1  0.946694  0.389071  0.351166  0  .  1
   O  O36  1  0.748525  0.478643  0.066781  0  .  1
   O  O37  1  0.066088  0.587337  0.669898  0  .  1
   O  O38  1  0.225457  0.502318  0.920228  0  .  1
   O  O39  1  0.725556  0.251605  0.670148  0  .  1
   O  O40  1  0.546002  0.319680  0.428228  0  .  1
   O  O41  1  0.390273  0.416224  0.170306  0  .  1
   O  O42  1  0.895149  0.170325  0.916494  0  .  1
   O  O43  1  0.108734  0.330529  0.584574  0  .  1
   O  O44  1  0.268782  0.245156  0.835008  0  .  1
   O  O45  1  0.429086  0.158618  0.085765  0  .  1
   O  O46  1  0.609291  0.084896  0.329431  0  .  1
   O  O47  1  0.237455  0.008132  0.414190  0  .  1
   O  O48  1  0.057099  0.081554  0.170464  0  .  1
 
