#\#CIF1.1
##########################################################################
#               Crystallographic Information Format file 
#               Produced by PyCifRW module
# 
#  This is a CIF file.  CIF has been adopted by the International
#  Union of Crystallography as the standard for data archiving and 
#  transmission.
#
#  For information on this file format, follow the CIF links at
#  http://www.iucr.org
##########################################################################

data_Na2Co2O3
_symmetry_space_group_name_H-M          'P 1'
_cell_length_a                          5.91006060522
_cell_length_b                          5.88645728
_cell_length_c                          6.07809053048
_cell_angle_alpha                       90.0
_cell_angle_beta                        118.721550661
_cell_angle_gamma                       90.0
_chemical_name_systematic               'Generated by pymatgen'
_symmetry_Int_Tables_number             1
_chemical_formula_structural            Na2Co2O3
_chemical_formula_sum                   'Na4 Co4 O6'
_cell_volume                            185.436657946
_cell_formula_units_Z                   2
loop_
  _symmetry_equiv_pos_site_id
  _symmetry_equiv_pos_as_xyz
   1  'x, y, z'
 
loop_
  _atom_site_type_symbol
  _atom_site_label
  _atom_site_symmetry_multiplicity
  _atom_site_fract_x
  _atom_site_fract_y
  _atom_site_fract_z
  _atom_site_attached_hydrogens
  _atom_site_B_iso_or_equiv
  _atom_site_occupancy
   Na  Na1  1  0.143197  0.652908  0.902402  0  .  1
   Na  Na2  1  0.143197  0.847092  0.402402  0  .  1
   Na  Na3  1  0.856803  0.152908  0.597598  0  .  1
   Na  Na4  1  0.856803  0.347092  0.097598  0  .  1
   Co  Co5  1  0.338366  0.374499  0.580128  0  .  1
   Co  Co6  1  0.661634  0.874499  0.919872  0  .  1
   Co  Co7  1  0.338366  0.125501  0.080128  0  .  1
   Co  Co8  1  0.661634  0.625501  0.419872  0  .  1
   O  O9  1  0.000000  0.500000  0.500000  0  .  1
   O  O10  1  0.000000  0.000000  0.000000  0  .  1
   O  O11  1  0.358393  0.086958  0.752737  0  .  1
   O  O12  1  0.358393  0.413042  0.252737  0  .  1
   O  O13  1  0.641607  0.586958  0.747263  0  .  1
   O  O14  1  0.641607  0.913042  0.247263  0  .  1
 
