#\#CIF1.1
##########################################################################
#               Crystallographic Information Format file 
#               Produced by PyCifRW module
# 
#  This is a CIF file.  CIF has been adopted by the International
#  Union of Crystallography as the standard for data archiving and 
#  transmission.
#
#  For information on this file format, follow the CIF links at
#  http://www.iucr.org
##########################################################################

data_Na2CaV4O12
_symmetry_space_group_name_H-M          'P 1'
_cell_length_a                          5.05984927
_cell_length_b                          10.55097191
_cell_length_c                          10.55097191
_cell_angle_alpha                       90.0
_cell_angle_beta                        90.0
_cell_angle_gamma                       90.0
_chemical_name_systematic               'Generated by pymatgen'
_symmetry_Int_Tables_number             1
_chemical_formula_structural            Na2CaV4O12
_chemical_formula_sum                   'Na4 Ca2 V8 O24'
_cell_volume                            563.277642006
_cell_formula_units_Z                   2
loop_
  _symmetry_equiv_pos_site_id
  _symmetry_equiv_pos_as_xyz
   1  'x, y, z'
 
loop_
  _atom_site_type_symbol
  _atom_site_label
  _atom_site_symmetry_multiplicity
  _atom_site_fract_x
  _atom_site_fract_y
  _atom_site_fract_z
  _atom_site_attached_hydrogens
  _atom_site_B_iso_or_equiv
  _atom_site_occupancy
   O  O1  1  0.242530  0.560594  0.684684  0  .  1
   O  O2  1  0.242530  0.939406  0.815316  0  .  1
   O  O3  1  0.242530  0.684684  0.939406  0  .  1
   O  O4  1  0.242530  0.815316  0.560594  0  .  1
   O  O5  1  0.757470  0.684684  0.560594  0  .  1
   O  O6  1  0.757470  0.939406  0.684684  0  .  1
   O  O7  1  0.757470  0.560594  0.815316  0  .  1
   O  O8  1  0.757470  0.815316  0.939406  0  .  1
   O  O9  1  0.757470  0.439406  0.315316  0  .  1
   O  O10  1  0.757470  0.060594  0.184684  0  .  1
   O  O11  1  0.757470  0.315316  0.060594  0  .  1
   O  O12  1  0.757470  0.184684  0.439406  0  .  1
   O  O13  1  0.242530  0.315316  0.439406  0  .  1
   O  O14  1  0.242530  0.060594  0.315316  0  .  1
   O  O15  1  0.146030  0.628320  0.371680  0  .  1
   O  O16  1  0.146030  0.128320  0.628320  0  .  1
   O  O17  1  0.146030  0.371680  0.871680  0  .  1
   O  O18  1  0.146030  0.871680  0.128320  0  .  1
   O  O19  1  0.853970  0.628320  0.128320  0  .  1
   O  O20  1  0.853970  0.871680  0.371680  0  .  1
   O  O21  1  0.853970  0.371680  0.628320  0  .  1
   O  O22  1  0.853970  0.128320  0.871680  0  .  1
   O  O23  1  0.242530  0.184684  0.060594  0  .  1
   O  O24  1  0.242530  0.439406  0.184684  0  .  1
   Na  Na25  1  0.500000  0.000000  0.000000  0  .  1
   Na  Na26  1  0.500000  0.500000  0.000000  0  .  1
   Na  Na27  1  0.500000  0.000000  0.500000  0  .  1
   Na  Na28  1  0.500000  0.500000  0.500000  0  .  1
   Ca  Ca29  1  0.500000  0.250000  0.250000  0  .  1
   Ca  Ca30  1  0.500000  0.750000  0.750000  0  .  1
   V  V31  1  0.000000  0.250000  0.526695  0  .  1
   V  V32  1  0.000000  0.526695  0.250000  0  .  1
   V  V33  1  0.000000  0.250000  0.973305  0  .  1
   V  V34  1  0.000000  0.973305  0.250000  0  .  1
   V  V35  1  0.000000  0.473305  0.750000  0  .  1
   V  V36  1  0.000000  0.750000  0.473305  0  .  1
   V  V37  1  0.000000  0.750000  0.026695  0  .  1
   V  V38  1  0.000000  0.026695  0.750000  0  .  1
 
