#\#CIF1.1
##########################################################################
#               Crystallographic Information Format file 
#               Produced by PyCifRW module
# 
#  This is a CIF file.  CIF has been adopted by the International
#  Union of Crystallography as the standard for data archiving and 
#  transmission.
#
#  For information on this file format, follow the CIF links at
#  http://www.iucr.org
##########################################################################

data_Na2CrO4
_symmetry_space_group_name_H-M          'P 1'
_cell_length_a                          8.94371246859
_cell_length_b                          6.15183880309
_cell_length_c                          5.56375244293
_cell_angle_alpha                       58.6934235287
_cell_angle_beta                        109.530839153
_cell_angle_gamma                       100.039553168
_chemical_name_systematic               'Generated by pymatgen'
_symmetry_Int_Tables_number             1
_chemical_formula_structural            Na2CrO4
_chemical_formula_sum                   'Na4 Cr2 O8'
_cell_volume                            246.498897428
_cell_formula_units_Z                   2
loop_
  _symmetry_equiv_pos_site_id
  _symmetry_equiv_pos_as_xyz
   1  'x, y, z'
 
loop_
  _atom_site_type_symbol
  _atom_site_label
  _atom_site_symmetry_multiplicity
  _atom_site_fract_x
  _atom_site_fract_y
  _atom_site_fract_z
  _atom_site_attached_hydrogens
  _atom_site_B_iso_or_equiv
  _atom_site_occupancy
   Na  Na1  1  0.145247  0.279983  0.462244  0  .  1
   Na  Na2  1  0.437252  0.753705  0.455513  0  .  1
   Na  Na3  1  0.562748  0.246295  0.544487  0  .  1
   Na  Na4  1  0.854753  0.720017  0.537756  0  .  1
   Cr  Cr5  1  0.254198  0.703971  0.847369  0  .  1
   Cr  Cr6  1  0.745802  0.296029  0.152631  0  .  1
   O  O7  1  0.088945  0.816397  0.813959  0  .  1
   O  O8  1  0.215381  0.536672  0.676354  0  .  1
   O  O9  1  0.367975  0.950993  0.686409  0  .  1
   O  O10  1  0.347127  0.523822  0.206339  0  .  1
   O  O11  1  0.652873  0.476177  0.793661  0  .  1
   O  O12  1  0.632025  0.049007  0.313591  0  .  1
   O  O13  1  0.784619  0.463328  0.323646  0  .  1
   O  O14  1  0.911055  0.183603  0.186041  0  .  1
 
