#\#CIF1.1
##########################################################################
#               Crystallographic Information Format file 
#               Produced by PyCifRW module
# 
#  This is a CIF file.  CIF has been adopted by the International
#  Union of Crystallography as the standard for data archiving and 
#  transmission.
#
#  For information on this file format, follow the CIF links at
#  http://www.iucr.org
##########################################################################

data_Na2Cr4O13
_symmetry_space_group_name_H-M          'P 1'
_cell_length_a                          17.4573378174
_cell_length_b                          7.24524747
_cell_length_c                          9.17067573243
_cell_angle_alpha                       90.0
_cell_angle_beta                        92.265235348
_cell_angle_gamma                       90.0
_chemical_name_systematic               'Generated by pymatgen'
_symmetry_Int_Tables_number             1
_chemical_formula_structural            Na2Cr4O13
_chemical_formula_sum                   'Na8 Cr16 O52'
_cell_volume                            1159.02571125
_cell_formula_units_Z                   4
loop_
  _symmetry_equiv_pos_site_id
  _symmetry_equiv_pos_as_xyz
   1  'x, y, z'
 
loop_
  _atom_site_type_symbol
  _atom_site_label
  _atom_site_symmetry_multiplicity
  _atom_site_fract_x
  _atom_site_fract_y
  _atom_site_fract_z
  _atom_site_attached_hydrogens
  _atom_site_B_iso_or_equiv
  _atom_site_occupancy
   Na  Na1  1  0.054897  0.673985  0.821905  0  .  1
   Na  Na2  1  0.054897  0.826015  0.321905  0  .  1
   Na  Na3  1  0.433108  0.145133  0.682287  0  .  1
   Na  Na4  1  0.433108  0.354867  0.182287  0  .  1
   Na  Na5  1  0.566892  0.645133  0.817713  0  .  1
   Na  Na6  1  0.566892  0.854867  0.317713  0  .  1
   Na  Na7  1  0.945103  0.173985  0.678095  0  .  1
   Na  Na8  1  0.945103  0.326015  0.178095  0  .  1
   Cr  Cr9  1  0.084149  0.172894  0.944771  0  .  1
   Cr  Cr10  1  0.084149  0.327106  0.444771  0  .  1
   Cr  Cr11  1  0.251260  0.353579  0.823622  0  .  1
   Cr  Cr12  1  0.243756  0.693450  0.586570  0  .  1
   Cr  Cr13  1  0.251260  0.146421  0.323622  0  .  1
   Cr  Cr14  1  0.243756  0.806550  0.086570  0  .  1
   Cr  Cr15  1  0.418653  0.676274  0.539522  0  .  1
   Cr  Cr16  1  0.418653  0.823726  0.039522  0  .  1
   Cr  Cr17  1  0.581347  0.176274  0.960478  0  .  1
   Cr  Cr18  1  0.581347  0.323726  0.460478  0  .  1
   Cr  Cr19  1  0.756244  0.193450  0.913430  0  .  1
   Cr  Cr20  1  0.748740  0.853579  0.676378  0  .  1
   Cr  Cr21  1  0.756244  0.306550  0.413430  0  .  1
   Cr  Cr22  1  0.748740  0.646421  0.176378  0  .  1
   Cr  Cr23  1  0.915851  0.672894  0.555229  0  .  1
   Cr  Cr24  1  0.915851  0.827106  0.055229  0  .  1
   O  O25  1  0.010475  0.313222  0.929768  0  .  1
   O  O26  1  0.010475  0.186778  0.429768  0  .  1
   O  O27  1  0.074163  0.012255  0.821200  0  .  1
   O  O28  1  0.074163  0.487745  0.321200  0  .  1
   O  O29  1  0.087992  0.416661  0.607504  0  .  1
   O  O30  1  0.087992  0.083339  0.107504  0  .  1
   O  O31  1  0.170086  0.307608  0.919431  0  .  1
   O  O32  1  0.170086  0.192392  0.419431  0  .  1
   O  O33  1  0.173081  0.833661  0.564859  0  .  1
   O  O34  1  0.173081  0.666339  0.064859  0  .  1
   O  O35  1  0.241616  0.955050  0.958451  0  .  1
   O  O36  1  0.237162  0.582302  0.757288  0  .  1
   O  O37  1  0.241616  0.544950  0.458451  0  .  1
   O  O38  1  0.237162  0.917698  0.257288  0  .  1
   O  O39  1  0.261695  0.214034  0.691494  0  .  1
   O  O40  1  0.261695  0.285966  0.191494  0  .  1
   O  O41  1  0.328450  0.349085  0.924525  0  .  1
   O  O42  1  0.328450  0.150915  0.424525  0  .  1
   O  O43  1  0.331763  0.806002  0.584691  0  .  1
   O  O44  1  0.331763  0.693998  0.084691  0  .  1
   O  O45  1  0.414662  0.872884  0.866936  0  .  1
   O  O46  1  0.414662  0.627116  0.366936  0  .  1
   O  O47  1  0.424249  0.487678  0.635808  0  .  1
   O  O48  1  0.424249  0.012322  0.135808  0  .  1
   O  O49  1  0.492311  0.810548  0.577735  0  .  1
   O  O50  1  0.492311  0.689452  0.077735  0  .  1
   O  O51  1  0.507689  0.310548  0.922265  0  .  1
   O  O52  1  0.507689  0.189452  0.422265  0  .  1
   O  O53  1  0.575751  0.987678  0.864192  0  .  1
   O  O54  1  0.575751  0.512322  0.364192  0  .  1
   O  O55  1  0.585338  0.372884  0.633064  0  .  1
   O  O56  1  0.585338  0.127116  0.133064  0  .  1
   O  O57  1  0.668237  0.306002  0.915309  0  .  1
   O  O58  1  0.668237  0.193998  0.415309  0  .  1
   O  O59  1  0.671550  0.849085  0.575475  0  .  1
   O  O60  1  0.671550  0.650915  0.075475  0  .  1
   O  O61  1  0.738305  0.714034  0.808506  0  .  1
   O  O62  1  0.738305  0.785966  0.308506  0  .  1
   O  O63  1  0.762838  0.082302  0.742712  0  .  1
   O  O64  1  0.758384  0.455050  0.541549  0  .  1
   O  O65  1  0.762838  0.417698  0.242712  0  .  1
   O  O66  1  0.758384  0.044950  0.041549  0  .  1
   O  O67  1  0.826919  0.333661  0.935141  0  .  1
   O  O68  1  0.826919  0.166339  0.435141  0  .  1
   O  O69  1  0.829914  0.807608  0.580569  0  .  1
   O  O70  1  0.829914  0.692392  0.080569  0  .  1
   O  O71  1  0.912008  0.916661  0.892496  0  .  1
   O  O72  1  0.912008  0.583339  0.392496  0  .  1
   O  O73  1  0.925837  0.512255  0.678800  0  .  1
   O  O74  1  0.925837  0.987745  0.178800  0  .  1
   O  O75  1  0.989525  0.813222  0.570232  0  .  1
   O  O76  1  0.989525  0.686778  0.070232  0  .  1
 
