#\#CIF1.1
##########################################################################
#               Crystallographic Information Format file 
#               Produced by PyCifRW module
# 
#  This is a CIF file.  CIF has been adopted by the International
#  Union of Crystallography as the standard for data archiving and 
#  transmission.
#
#  For information on this file format, follow the CIF links at
#  http://www.iucr.org
##########################################################################

data_Na2CoO3
_symmetry_space_group_name_H-M          'P 1'
_cell_length_a                          5.1878491431
_cell_length_b                          5.1878491431
_cell_length_c                          5.64523903002
_cell_angle_alpha                       80.6869900787
_cell_angle_beta                        99.3130099213
_cell_angle_gamma                       60.1633183575
_chemical_name_systematic               'Generated by pymatgen'
_symmetry_Int_Tables_number             1
_chemical_formula_structural            Na2CoO3
_chemical_formula_sum                   'Na4 Co2 O6'
_cell_volume                            124.737296871
_cell_formula_units_Z                   2
loop_
  _symmetry_equiv_pos_site_id
  _symmetry_equiv_pos_as_xyz
   1  'x, y, z'
 
loop_
  _atom_site_type_symbol
  _atom_site_label
  _atom_site_symmetry_multiplicity
  _atom_site_fract_x
  _atom_site_fract_y
  _atom_site_fract_z
  _atom_site_attached_hydrogens
  _atom_site_B_iso_or_equiv
  _atom_site_occupancy
   Na  Na1  1  0.157689  0.157689  0.500000  0  .  1
   Na  Na2  1  0.842311  0.842311  0.500000  0  .  1
   Na  Na3  1  0.500000  0.500000  0.500000  0  .  1
   Na  Na4  1  0.000000  0.000000  0.000000  0  .  1
   Co  Co5  1  0.670675  0.670675  0.000000  0  .  1
   Co  Co6  1  0.329325  0.329325  0.000000  0  .  1
   O  O7  1  0.312824  0.687176  0.801181  0  .  1
   O  O8  1  0.063100  0.554121  0.198126  0  .  1
   O  O9  1  0.445879  0.936900  0.198126  0  .  1
   O  O10  1  0.936900  0.445879  0.801874  0  .  1
   O  O11  1  0.554121  0.063100  0.801874  0  .  1
   O  O12  1  0.687176  0.312824  0.198819  0  .  1
 
