#\#CIF1.1
##########################################################################
#               Crystallographic Information Format file 
#               Produced by PyCifRW module
# 
#  This is a CIF file.  CIF has been adopted by the International
#  Union of Crystallography as the standard for data archiving and 
#  transmission.
#
#  For information on this file format, follow the CIF links at
#  http://www.iucr.org
##########################################################################

data_Na2Cr7O14
_symmetry_space_group_name_H-M          'P 1'
_cell_length_a                          5.75510349091
_cell_length_b                          9.95362735472
_cell_length_c                          5.75534239771
_cell_angle_alpha                       106.877198944
_cell_angle_beta                        59.9983681179
_cell_angle_gamma                       106.896572839
_chemical_name_systematic               'Generated by pymatgen'
_symmetry_Int_Tables_number             1
_chemical_formula_structural            Na2Cr7O14
_chemical_formula_sum                   'Na2 Cr7 O14'
_cell_volume                            268.97504664
_cell_formula_units_Z                   1
loop_
  _symmetry_equiv_pos_site_id
  _symmetry_equiv_pos_as_xyz
   1  'x, y, z'
 
loop_
  _atom_site_type_symbol
  _atom_site_label
  _atom_site_symmetry_multiplicity
  _atom_site_fract_x
  _atom_site_fract_y
  _atom_site_fract_z
  _atom_site_attached_hydrogens
  _atom_site_B_iso_or_equiv
  _atom_site_occupancy
   Na  Na1  1  0.301707  0.905306  0.301953  0  .  1
   Na  Na2  1  0.698291  0.094835  0.698146  0  .  1
   Cr  Cr3  1  -0.000022  0.499954  -0.000090  0  .  1
   Cr  Cr4  1  0.060188  0.181419  0.060412  0  .  1
   Cr  Cr5  1  -0.000033  0.499952  0.500051  0  .  1
   Cr  Cr6  1  0.500059  0.499952  -0.000050  0  .  1
   Cr  Cr7  1  0.576236  0.728442  0.576068  0  .  1
   Cr  Cr8  1  0.423730  0.271517  0.423883  0  .  1
   Cr  Cr9  1  0.939822  0.818608  0.939576  0  .  1
   O  O10  1  0.128418  0.385792  0.128558  0  .  1
   O  O11  1  0.116431  0.390735  0.637065  0  .  1
   O  O12  1  0.363205  0.609276  0.363047  0  .  1
   O  O13  1  0.299060  0.855441  0.778556  0  .  1
   O  O14  1  0.221079  0.144699  0.221286  0  .  1
   O  O15  1  0.221036  0.144549  0.701238  0  .  1
   O  O16  1  0.363072  0.609279  0.883457  0  .  1
   O  O17  1  0.636961  0.390746  0.116552  0  .  1
   O  O18  1  0.778901  0.855417  0.298751  0  .  1
   O  O19  1  0.778968  0.855266  0.778623  0  .  1
   O  O20  1  0.700945  0.144527  0.221467  0  .  1
   O  O21  1  0.636816  0.390754  0.636957  0  .  1
   O  O22  1  0.883606  0.609291  0.362932  0  .  1
   O  O23  1  0.871633  0.614246  0.871452  0  .  1
 
