#\#CIF1.1
##########################################################################
#               Crystallographic Information Format file 
#               Produced by PyCifRW module
# 
#  This is a CIF file.  CIF has been adopted by the International
#  Union of Crystallography as the standard for data archiving and 
#  transmission.
#
#  For information on this file format, follow the CIF links at
#  http://www.iucr.org
##########################################################################

data_Na2FeO4
_symmetry_space_group_name_H-M          'P 1'
_cell_length_a                          5.51133220537
_cell_length_b                          6.13780666875
_cell_length_c                          8.66211956675
_cell_angle_alpha                       82.5559860323
_cell_angle_beta                        74.9670013116
_cell_angle_gamma                       58.6704722133
_chemical_name_systematic               'Generated by pymatgen'
_symmetry_Int_Tables_number             1
_chemical_formula_structural            Na2FeO4
_chemical_formula_sum                   'Na4 Fe2 O8'
_cell_volume                            241.722257391
_cell_formula_units_Z                   2
loop_
  _symmetry_equiv_pos_site_id
  _symmetry_equiv_pos_as_xyz
   1  'x, y, z'
 
loop_
  _atom_site_type_symbol
  _atom_site_label
  _atom_site_symmetry_multiplicity
  _atom_site_fract_x
  _atom_site_fract_y
  _atom_site_fract_z
  _atom_site_attached_hydrogens
  _atom_site_B_iso_or_equiv
  _atom_site_occupancy
   Na  Na1  1  0.309145  0.273931  0.646156  0  .  1
   Na  Na2  1  0.023667  0.755691  0.928530  0  .  1
   Na  Na3  1  0.976333  0.244309  0.071470  0  .  1
   Na  Na4  1  0.690855  0.726069  0.353844  0  .  1
   Fe  Fe5  1  0.406334  0.296175  0.244591  0  .  1
   Fe  Fe6  1  0.593666  0.703825  0.755409  0  .  1
   O  O7  1  0.136148  0.489749  0.152852  0  .  1
   O  O8  1  0.277251  0.171848  0.401969  0  .  1
   O  O9  1  0.674510  0.054026  0.125307  0  .  1
   O  O10  1  0.549810  0.447058  0.296446  0  .  1
   O  O11  1  0.450190  0.552942  0.703554  0  .  1
   O  O12  1  0.325490  0.945974  0.874693  0  .  1
   O  O13  1  0.722749  0.828152  0.598031  0  .  1
   O  O14  1  0.863852  0.510251  0.847148  0  .  1
 
