#\#CIF1.1
##########################################################################
#               Crystallographic Information Format file 
#               Produced by PyCifRW module
# 
#  This is a CIF file.  CIF has been adopted by the International
#  Union of Crystallography as the standard for data archiving and 
#  transmission.
#
#  For information on this file format, follow the CIF links at
#  http://www.iucr.org
##########################################################################

data_Na2FeO3
_symmetry_space_group_name_H-M          'P 1'
_cell_length_a                          5.37144801224
_cell_length_b                          5.37144801224
_cell_length_c                          5.78810832968
_cell_angle_alpha                       80.7322532685
_cell_angle_beta                        99.2677467315
_cell_angle_gamma                       59.8750870309
_chemical_name_systematic               'Generated by pymatgen'
_symmetry_Int_Tables_number             1
_chemical_formula_structural            Na2FeO3
_chemical_formula_sum                   'Na4 Fe2 O6'
_cell_volume                            136.716925313
_cell_formula_units_Z                   2
loop_
  _symmetry_equiv_pos_site_id
  _symmetry_equiv_pos_as_xyz
   1  'x, y, z'
 
loop_
  _atom_site_type_symbol
  _atom_site_label
  _atom_site_symmetry_multiplicity
  _atom_site_fract_x
  _atom_site_fract_y
  _atom_site_fract_z
  _atom_site_attached_hydrogens
  _atom_site_B_iso_or_equiv
  _atom_site_occupancy
   Na  Na1  1  0.157888  0.157888  0.500000  0  .  1
   Na  Na2  1  0.842112  0.842112  0.500000  0  .  1
   Na  Na3  1  0.500000  0.500000  0.500000  0  .  1
   Na  Na4  1  0.000000  0.000000  0.000000  0  .  1
   Fe  Fe5  1  0.666862  0.666862  0.000000  0  .  1
   Fe  Fe6  1  0.333137  0.333137  0.000000  0  .  1
   O  O7  1  0.306641  0.693359  0.795425  0  .  1
   O  O8  1  0.071255  0.551688  0.202099  0  .  1
   O  O9  1  0.448312  0.928745  0.202099  0  .  1
   O  O10  1  0.928745  0.448312  0.797901  0  .  1
   O  O11  1  0.551688  0.071255  0.797901  0  .  1
   O  O12  1  0.693359  0.306641  0.204575  0  .  1
 
