#\#CIF1.1
##########################################################################
#               Crystallographic Information Format file 
#               Produced by PyCifRW module
# 
#  This is a CIF file.  CIF has been adopted by the International
#  Union of Crystallography as the standard for data archiving and 
#  transmission.
#
#  For information on this file format, follow the CIF links at
#  http://www.iucr.org
##########################################################################

data_Na2Mn2Se3
_symmetry_space_group_name_H-M          'P 1'
_cell_length_a                          7.31363439103
_cell_length_b                          10.5057680986
_cell_length_c                          10.505768102
_cell_angle_alpha                       83.6623297799
_cell_angle_beta                        69.8622032519
_cell_angle_gamma                       69.8622032098
_chemical_name_systematic               'Generated by pymatgen'
_symmetry_Int_Tables_number             1
_chemical_formula_structural            Na2Mn2Se3
_chemical_formula_sum                   'Na8 Mn8 Se12'
_cell_volume                            711.506402886
_cell_formula_units_Z                   4
loop_
  _symmetry_equiv_pos_site_id
  _symmetry_equiv_pos_as_xyz
   1  'x, y, z'
 
loop_
  _atom_site_type_symbol
  _atom_site_label
  _atom_site_symmetry_multiplicity
  _atom_site_fract_x
  _atom_site_fract_y
  _atom_site_fract_z
  _atom_site_attached_hydrogens
  _atom_site_B_iso_or_equiv
  _atom_site_occupancy
   Na  Na1  1  0.360969  0.189566  0.019900  0  .  1
   Na  Na2  1  0.139031  0.980100  0.810434  0  .  1
   Na  Na3  1  0.639031  0.810434  0.980100  0  .  1
   Na  Na4  1  0.860969  0.019900  0.189566  0  .  1
   Na  Na5  1  0.250000  0.279082  0.720918  0  .  1
   Na  Na6  1  0.750000  0.720918  0.279082  0  .  1
   Na  Na7  1  0.250000  0.569883  0.430117  0  .  1
   Na  Na8  1  0.750000  0.430117  0.569883  0  .  1
   Mn  Mn9  1  0.241944  0.919392  0.446699  0  .  1
   Mn  Mn10  1  0.258056  0.553301  0.080608  0  .  1
   Mn  Mn11  1  0.758056  0.080608  0.553301  0  .  1
   Mn  Mn12  1  0.741944  0.446699  0.919392  0  .  1
   Mn  Mn13  1  0.703613  0.786313  0.634083  0  .  1
   Mn  Mn14  1  0.796387  0.365917  0.213687  0  .  1
   Mn  Mn15  1  0.296387  0.213687  0.365917  0  .  1
   Mn  Mn16  1  0.203613  0.634083  0.786313  0  .  1
   Se  Se17  1  0.452609  0.997524  0.227188  0  .  1
   Se  Se18  1  0.047391  0.772812  0.002476  0  .  1
   Se  Se19  1  0.547391  0.002476  0.772812  0  .  1
   Se  Se20  1  0.952609  0.227188  0.997524  0  .  1
   Se  Se21  1  0.450265  0.415834  0.853438  0  .  1
   Se  Se22  1  0.049735  0.146562  0.584166  0  .  1
   Se  Se23  1  0.549735  0.584166  0.146562  0  .  1
   Se  Se24  1  0.950265  0.853438  0.415834  0  .  1
   Se  Se25  1  0.433556  0.721849  0.571213  0  .  1
   Se  Se26  1  0.066444  0.428787  0.278151  0  .  1
   Se  Se27  1  0.566444  0.278151  0.428787  0  .  1
   Se  Se28  1  0.933556  0.571213  0.721849  0  .  1
 
