#\#CIF1.1
##########################################################################
#               Crystallographic Information Format file 
#               Produced by PyCifRW module
# 
#  This is a CIF file.  CIF has been adopted by the International
#  Union of Crystallography as the standard for data archiving and 
#  transmission.
#
#  For information on this file format, follow the CIF links at
#  http://www.iucr.org
##########################################################################

data_Na2MnO4
_symmetry_space_group_name_H-M          'P 1'
_cell_length_a                          5.85535435
_cell_length_b                          5.85535434294
_cell_length_c                          6.77251899
_cell_angle_alpha                       90.0
_cell_angle_beta                        90.0
_cell_angle_gamma                       119.999999983
_chemical_name_systematic               'Generated by pymatgen'
_symmetry_Int_Tables_number             1
_chemical_formula_structural            Na2MnO4
_chemical_formula_sum                   'Na4 Mn2 O8'
_cell_volume                            201.088496846
_cell_formula_units_Z                   2
loop_
  _symmetry_equiv_pos_site_id
  _symmetry_equiv_pos_as_xyz
   1  'x, y, z'
 
loop_
  _atom_site_type_symbol
  _atom_site_label
  _atom_site_symmetry_multiplicity
  _atom_site_fract_x
  _atom_site_fract_y
  _atom_site_fract_z
  _atom_site_attached_hydrogens
  _atom_site_B_iso_or_equiv
  _atom_site_occupancy
   O  O1  1  0.821977  0.643955  0.254632  0  .  1
   O  O2  1  0.178022  0.821977  0.754631  0  .  1
   O  O3  1  0.643955  0.821977  0.754631  0  .  1
   O  O4  1  0.356045  0.178023  0.254632  0  .  1
   O  O5  1  0.821978  0.178023  0.254632  0  .  1
   O  O6  1  0.178023  0.356045  0.754631  0  .  1
   O  O7  1  0.333333  0.666666  0.428889  0  .  1
   O  O8  1  0.666667  0.333334  0.928889  0  .  1
   Na  Na9  1  0.666667  0.333334  0.607663  0  .  1
   Na  Na10  1  0.333333  0.666666  0.107662  0  .  1
   Na  Na11  1  0.000000  0.000000  0.489141  0  .  1
   Na  Na12  1  0.000000  0.000000  0.989142  0  .  1
   Mn  Mn13  1  0.666667  0.333334  0.170416  0  .  1
   Mn  Mn14  1  0.333333  0.666666  0.670415  0  .  1
 
