#\#CIF1.1
##########################################################################
#               Crystallographic Information Format file 
#               Produced by PyCifRW module
# 
#  This is a CIF file.  CIF has been adopted by the International
#  Union of Crystallography as the standard for data archiving and 
#  transmission.
#
#  For information on this file format, follow the CIF links at
#  http://www.iucr.org
##########################################################################

data_Na2MnO2
_symmetry_space_group_name_H-M          'P 1'
_cell_length_a                          5.84729959
_cell_length_b                          6.03053228104
_cell_length_c                          5.8086198
_cell_angle_alpha                       61.2099814121
_cell_angle_beta                        90.0
_cell_angle_gamma                       61.0001059954
_chemical_name_systematic               'Generated by pymatgen'
_symmetry_Int_Tables_number             1
_chemical_formula_structural            Na2MnO2
_chemical_formula_sum                   'Na4 Mn2 O4'
_cell_volume                            149.539655756
_cell_formula_units_Z                   2
loop_
  _symmetry_equiv_pos_site_id
  _symmetry_equiv_pos_as_xyz
   1  'x, y, z'
 
loop_
  _atom_site_type_symbol
  _atom_site_label
  _atom_site_symmetry_multiplicity
  _atom_site_fract_x
  _atom_site_fract_y
  _atom_site_fract_z
  _atom_site_attached_hydrogens
  _atom_site_B_iso_or_equiv
  _atom_site_occupancy
   Na  Na1  1  0.345808  0.308384  0.243820  0  .  1
   Na  Na2  1  0.845808  0.308384  0.447797  0  .  1
   Na  Na3  1  0.154192  0.691616  0.552203  0  .  1
   Na  Na4  1  0.654192  0.691616  0.756180  0  .  1
   Mn  Mn5  1  0.250000  0.000000  0.000000  0  .  1
   Mn  Mn6  1  0.750000  0.000000  0.000000  0  .  1
   O  O7  1  0.903985  0.192031  0.119167  0  .  1
   O  O8  1  0.596015  0.807969  0.311198  0  .  1
   O  O9  1  0.403985  0.192031  0.688802  0  .  1
   O  O10  1  0.096015  0.807969  0.880833  0  .  1
 
