#\#CIF1.1
##########################################################################
#               Crystallographic Information Format file 
#               Produced by PyCifRW module
# 
#  This is a CIF file.  CIF has been adopted by the International
#  Union of Crystallography as the standard for data archiving and 
#  transmission.
#
#  For information on this file format, follow the CIF links at
#  http://www.iucr.org
##########################################################################

data_Na2Mn3O7
_symmetry_space_group_name_H-M          'P 1'
_cell_length_a                          6.83045989371
_cell_length_b                          6.84593243307
_cell_length_c                          7.71388847693
_cell_angle_alpha                       103.511818044
_cell_angle_beta                        109.437733128
_cell_angle_gamma                       111.061884931
_chemical_name_systematic               'Generated by pymatgen'
_symmetry_Int_Tables_number             1
_chemical_formula_structural            Na2Mn3O7
_chemical_formula_sum                   'Na4 Mn6 O14'
_cell_volume                            290.729193616
_cell_formula_units_Z                   2
loop_
  _symmetry_equiv_pos_site_id
  _symmetry_equiv_pos_as_xyz
   1  'x, y, z'
 
loop_
  _atom_site_type_symbol
  _atom_site_label
  _atom_site_symmetry_multiplicity
  _atom_site_fract_x
  _atom_site_fract_y
  _atom_site_fract_z
  _atom_site_attached_hydrogens
  _atom_site_B_iso_or_equiv
  _atom_site_occupancy
   O  O1  1  0.546734  0.354977  0.723121  0  .  1
   O  O2  1  0.453266  0.645023  0.276879  0  .  1
   O  O3  1  0.877490  0.057208  0.585079  0  .  1
   O  O4  1  0.122510  0.942792  0.414921  0  .  1
   O  O5  1  0.311347  0.489960  0.866427  0  .  1
   O  O6  1  0.688653  0.510040  0.133573  0  .  1
   O  O7  1  0.871715  0.682604  0.564214  0  .  1
   O  O8  1  0.128285  0.317396  0.435786  0  .  1
   O  O9  1  0.971410  0.792871  0.981848  0  .  1
   O  O10  1  0.028590  0.207129  0.018152  0  .  1
   O  O11  1  0.385519  0.196868  0.244694  0  .  1
   O  O12  1  0.614481  0.803132  0.755306  0  .  1
   O  O13  1  0.737710  0.913839  0.152655  0  .  1
   O  O14  1  0.262290  0.086161  0.847345  0  .  1
   Na  Na15  1  0.266974  0.684715  0.477330  0  .  1
   Na  Na16  1  0.733026  0.315285  0.522670  0  .  1
   Na  Na17  1  0.335491  0.827044  0.063787  0  .  1
   Na  Na18  1  0.664509  0.172956  0.936213  0  .  1
   Mn  Mn19  1  0.923755  0.921780  0.779809  0  .  1
   Mn  Mn20  1  0.076245  0.078220  0.220191  0  .  1
   Mn  Mn21  1  0.357435  0.360089  0.079675  0  .  1
   Mn  Mn22  1  0.642565  0.639911  0.920325  0  .  1
   Mn  Mn23  1  0.219775  0.218491  0.641527  0  .  1
   Mn  Mn24  1  0.780225  0.781509  0.358473  0  .  1
 
