#\#CIF1.1
##########################################################################
#               Crystallographic Information Format file 
#               Produced by PyCifRW module
# 
#  This is a CIF file.  CIF has been adopted by the International
#  Union of Crystallography as the standard for data archiving and 
#  transmission.
#
#  For information on this file format, follow the CIF links at
#  http://www.iucr.org
##########################################################################

data_Na2Ni3O5
_symmetry_space_group_name_H-M          'P 1'
_cell_length_a                          5.17042365963
_cell_length_b                          6.11480133623
_cell_length_c                          6.92372836963
_cell_angle_alpha                       104.761771396
_cell_angle_beta                        98.7317860086
_cell_angle_gamma                       106.175686302
_chemical_name_systematic               'Generated by pymatgen'
_symmetry_Int_Tables_number             1
_chemical_formula_structural            Na2Ni3O5
_chemical_formula_sum                   'Na4 Ni6 O10'
_cell_volume                            197.359959008
_cell_formula_units_Z                   2
loop_
  _symmetry_equiv_pos_site_id
  _symmetry_equiv_pos_as_xyz
   1  'x, y, z'
 
loop_
  _atom_site_type_symbol
  _atom_site_label
  _atom_site_symmetry_multiplicity
  _atom_site_fract_x
  _atom_site_fract_y
  _atom_site_fract_z
  _atom_site_attached_hydrogens
  _atom_site_B_iso_or_equiv
  _atom_site_occupancy
   Na  Na1  1  0.800538  0.099180  0.605405  0  .  1
   Na  Na2  1  0.599462  0.700820  0.194595  0  .  1
   Na  Na3  1  0.406707  0.303201  0.806137  0  .  1
   Na  Na4  1  0.993293  0.496799  0.993863  0  .  1
   Ni  Ni5  1  0.800525  0.602388  0.593497  0  .  1
   Ni  Ni6  1  0.599475  0.197612  0.206503  0  .  1
   Ni  Ni7  1  0.402784  0.800374  0.793731  0  .  1
   Ni  Ni8  1  0.200000  0.400000  0.400000  0  .  1
   Ni  Ni9  1  0.200000  0.900000  0.400000  0  .  1
   Ni  Ni10  1  0.997216  0.999626  0.006269  0  .  1
   O  O11  1  0.934282  0.084786  0.308984  0  .  1
   O  O12  1  0.922783  0.533017  0.319012  0  .  1
   O  O13  1  0.694070  0.108736  0.919618  0  .  1
   O  O14  1  0.705930  0.691264  0.880382  0  .  1
   O  O15  1  0.477217  0.266983  0.480988  0  .  1
   O  O16  1  0.465718  0.715214  0.491016  0  .  1
   O  O17  1  0.270923  0.318256  0.127982  0  .  1
   O  O18  1  0.276589  0.875306  0.100586  0  .  1
   O  O19  1  0.129077  0.481744  0.672018  0  .  1
   O  O20  1  0.123411  0.924694  0.699414  0  .  1
 
