#\#CIF1.1
##########################################################################
#               Crystallographic Information Format file 
#               Produced by PyCifRW module
# 
#  This is a CIF file.  CIF has been adopted by the International
#  Union of Crystallography as the standard for data archiving and 
#  transmission.
#
#  For information on this file format, follow the CIF links at
#  http://www.iucr.org
##########################################################################

data_Na2Ti4O9
_symmetry_space_group_name_H-M          'P 1'
_cell_length_a                          11.7554372567
_cell_length_b                          11.1342655787
_cell_length_c                          8.87144883079
_cell_angle_alpha                       74.5879279662
_cell_angle_beta                        82.6471793569
_cell_angle_gamma                       75.9388888606
_chemical_name_systematic               'Generated by pymatgen'
_symmetry_Int_Tables_number             1
_chemical_formula_structural            Na2Ti4O9
_chemical_formula_sum                   'Na12 Ti24 O54'
_cell_volume                            1083.37134899
_cell_formula_units_Z                   6
loop_
  _symmetry_equiv_pos_site_id
  _symmetry_equiv_pos_as_xyz
   1  'x, y, z'
 
loop_
  _atom_site_type_symbol
  _atom_site_label
  _atom_site_symmetry_multiplicity
  _atom_site_fract_x
  _atom_site_fract_y
  _atom_site_fract_z
  _atom_site_attached_hydrogens
  _atom_site_B_iso_or_equiv
  _atom_site_occupancy
   Na  Na1  1  0.147095  0.702878  0.050943  0  .  1
   Na  Na2  1  0.141211  0.693967  0.430952  0  .  1
   Na  Na3  1  0.276199  0.395781  0.155939  0  .  1
   Na  Na4  1  0.273437  0.396972  0.487907  0  .  1
   Na  Na5  1  0.274559  0.405327  0.819144  0  .  1
   Na  Na6  1  0.286531  0.900034  0.478379  0  .  1
   Na  Na7  1  0.714822  0.099884  0.837808  0  .  1
   Na  Na8  1  0.723059  0.601970  0.178042  0  .  1
   Na  Na9  1  0.724970  0.594260  0.514938  0  .  1
   Na  Na10  1  0.727098  0.602297  0.845130  0  .  1
   Na  Na11  1  0.852015  0.293006  0.289343  0  .  1
   Na  Na12  1  0.858173  0.305065  0.904854  0  .  1
   Ti  Ti13  1  0.124518  0.186531  0.082969  0  .  1
   Ti  Ti14  1  0.123396  0.189707  0.416338  0  .  1
   Ti  Ti15  1  0.009410  0.508680  0.827585  0  .  1
   Ti  Ti16  1  0.003391  0.995732  0.000218  0  .  1
   Ti  Ti17  1  0.124285  0.187961  0.751326  0  .  1
   Ti  Ti18  1  0.429959  0.117913  0.055192  0  .  1
   Ti  Ti19  1  0.437547  0.126046  0.384428  0  .  1
   Ti  Ti20  1  0.429682  0.117780  0.722458  0  .  1
   Ti  Ti21  1  0.441448  0.625231  0.218923  0  .  1
   Ti  Ti22  1  0.446343  0.623934  0.551646  0  .  1
   Ti  Ti23  1  0.556909  0.376255  0.113879  0  .  1
   Ti  Ti24  1  0.440800  0.628777  0.882156  0  .  1
   Ti  Ti25  1  0.558067  0.373535  0.450612  0  .  1
   Ti  Ti26  1  0.552692  0.377308  0.781794  0  .  1
   Ti  Ti27  1  0.570430  0.881879  0.277964  0  .  1
   Ti  Ti28  1  0.570322  0.882681  0.610699  0  .  1
   Ti  Ti29  1  0.563260  0.874334  0.948936  0  .  1
   Ti  Ti30  1  0.997068  0.003116  0.332368  0  .  1
   Ti  Ti31  1  0.001379  0.998823  0.666813  0  .  1
   Ti  Ti32  1  0.875441  0.812421  0.250633  0  .  1
   Ti  Ti33  1  0.875994  0.812717  0.581964  0  .  1
   Ti  Ti34  1  0.999479  0.498709  0.166108  0  .  1
   Ti  Ti35  1  0.990997  0.491341  0.503486  0  .  1
   Ti  Ti36  1  0.876918  0.808874  0.917937  0  .  1
   O  O37  1  0.059332  0.304096  0.222598  0  .  1
   O  O38  1  0.060996  0.304503  0.555373  0  .  1
   O  O39  1  0.150428  0.059229  0.289900  0  .  1
   O  O40  1  0.061975  0.304988  0.887634  0  .  1
   O  O41  1  0.149560  0.060148  0.619935  0  .  1
   O  O42  1  0.148597  0.061922  0.954436  0  .  1
   O  O43  1  0.106403  0.515255  0.310642  0  .  1
   O  O44  1  0.044295  0.873813  0.200496  0  .  1
   O  O45  1  0.109544  0.510827  0.642949  0  .  1
   O  O46  1  0.046239  0.877236  0.531448  0  .  1
   O  O47  1  0.111581  0.512485  0.979766  0  .  1
   O  O48  1  0.273459  0.218928  0.047416  0  .  1
   O  O49  1  0.044112  0.876188  0.868954  0  .  1
   O  O50  1  0.274361  0.215995  0.382018  0  .  1
   O  O51  1  0.273349  0.219420  0.715373  0  .  1
   O  O52  1  0.408390  0.009423  0.263908  0  .  1
   O  O53  1  0.408488  0.009844  0.593087  0  .  1
   O  O54  1  0.406599  0.008536  0.929164  0  .  1
   O  O55  1  0.343130  0.674735  0.052322  0  .  1
   O  O56  1  0.342799  0.681108  0.385123  0  .  1
   O  O57  1  0.481754  0.222528  0.177270  0  .  1
   O  O58  1  0.430105  0.447510  0.279773  0  .  1
   O  O59  1  0.346104  0.682744  0.712151  0  .  1
   O  O60  1  0.481814  0.222282  0.512950  0  .  1
   O  O61  1  0.429591  0.447316  0.613587  0  .  1
   O  O62  1  0.486152  0.216921  0.846689  0  .  1
   O  O63  1  0.429751  0.448481  0.944072  0  .  1
   O  O64  1  0.568000  0.554037  0.052848  0  .  1
   O  O65  1  0.518101  0.777852  0.155198  0  .  1
   O  O66  1  0.568902  0.553204  0.388531  0  .  1
   O  O67  1  0.514067  0.783478  0.485992  0  .  1
   O  O68  1  0.655623  0.327965  0.280166  0  .  1
   O  O69  1  0.569453  0.553984  0.719509  0  .  1
   O  O70  1  0.518041  0.778836  0.819379  0  .  1
   O  O71  1  0.653304  0.319476  0.620096  0  .  1
   O  O72  1  0.655935  0.320899  0.947841  0  .  1
   O  O73  1  0.592177  0.990300  0.068496  0  .  1
   O  O74  1  0.593832  0.991630  0.403047  0  .  1
   O  O75  1  0.592211  0.990850  0.739270  0  .  1
   O  O76  1  0.726592  0.780037  0.285836  0  .  1
   O  O77  1  0.726842  0.781642  0.617966  0  .  1
   O  O78  1  0.726008  0.782782  0.951261  0  .  1
   O  O79  1  0.956190  0.125313  0.133684  0  .  1
   O  O80  1  0.892977  0.484370  0.024215  0  .  1
   O  O81  1  0.957345  0.122224  0.465361  0  .  1
   O  O82  1  0.888075  0.486132  0.355087  0  .  1
   O  O83  1  0.954156  0.121352  0.802273  0  .  1
   O  O84  1  0.891343  0.488683  0.691310  0  .  1
   O  O85  1  0.850302  0.939537  0.043273  0  .  1
   O  O86  1  0.851486  0.938018  0.378728  0  .  1
   O  O87  1  0.940538  0.694831  0.111502  0  .  1
   O  O88  1  0.851616  0.939460  0.713621  0  .  1
   O  O89  1  0.937865  0.694644  0.446020  0  .  1
   O  O90  1  0.939688  0.695107  0.777842  0  .  1
 
