#\#CIF1.1
##########################################################################
#               Crystallographic Information Format file 
#               Produced by PyCifRW module
# 
#  This is a CIF file.  CIF has been adopted by the International
#  Union of Crystallography as the standard for data archiving and 
#  transmission.
#
#  For information on this file format, follow the CIF links at
#  http://www.iucr.org
##########################################################################

data_Na2Ti9O19
_symmetry_space_group_name_H-M          'P 1'
_cell_length_a                          3.79229013
_cell_length_b                          6.54900482886
_cell_length_c                          15.7049921948
_cell_angle_alpha                       100.339153932
_cell_angle_beta                        96.9345338307
_cell_angle_gamma                       73.1700731364
_chemical_name_systematic               'Generated by pymatgen'
_symmetry_Int_Tables_number             1
_chemical_formula_structural            Na2Ti9O19
_chemical_formula_sum                   'Na2 Ti9 O19'
_cell_volume                            366.295746582
_cell_formula_units_Z                   1
loop_
  _symmetry_equiv_pos_site_id
  _symmetry_equiv_pos_as_xyz
   1  'x, y, z'
 
loop_
  _atom_site_type_symbol
  _atom_site_label
  _atom_site_symmetry_multiplicity
  _atom_site_fract_x
  _atom_site_fract_y
  _atom_site_fract_z
  _atom_site_attached_hydrogens
  _atom_site_B_iso_or_equiv
  _atom_site_occupancy
   Na  Na1  1  0.000315  0.999070  0.999700  0  .  1
   Na  Na2  1  0.711768  0.075077  0.498612  0  .  1
   Ti  Ti3  1  0.786639  0.724239  0.297518  0  .  1
   Ti  Ti4  1  0.200506  0.718587  0.119599  0  .  1
   Ti  Ti5  1  0.916330  0.868096  0.700757  0  .  1
   Ti  Ti6  1  0.106259  0.655488  0.868007  0  .  1
   Ti  Ti7  1  0.996518  0.506791  0.499827  0  .  1
   Ti  Ti8  1  0.895137  0.341550  0.131824  0  .  1
   Ti  Ti9  1  0.086873  0.126720  0.300466  0  .  1
   Ti  Ti10  1  0.800294  0.279812  0.880399  0  .  1
   Ti  Ti11  1  0.216324  0.268782  0.701428  0  .  1
   O  O12  1  0.162934  0.678090  0.003956  0  .  1
   O  O13  1  0.377591  0.952421  0.707602  0  .  1
   O  O14  1  0.246662  0.776049  0.269372  0  .  1
   O  O15  1  0.954977  0.949850  0.859804  0  .  1
   O  O16  1  0.731714  0.683483  0.146910  0  .  1
   O  O17  1  0.909341  0.769831  0.588513  0  .  1
   O  O18  1  0.852849  0.703488  0.409186  0  .  1
   O  O19  1  0.362088  0.401729  0.125905  0  .  1
   O  O20  1  0.928602  0.401258  0.258461  0  .  1
   O  O21  1  0.508354  0.483455  0.500163  0  .  1
   O  O22  1  0.837837  0.320445  0.996118  0  .  1
   O  O23  1  0.073987  0.593664  0.741637  0  .  1
   O  O24  1  0.638970  0.596280  0.874220  0  .  1
   O  O25  1  0.153228  0.283630  0.590087  0  .  1
   O  O26  1  0.095732  0.220685  0.412147  0  .  1
   O  O27  1  0.269774  0.314322  0.853870  0  .  1
   O  O28  1  0.046155  0.047322  0.139630  0  .  1
   O  O29  1  0.755561  0.218704  0.729824  0  .  1
   O  O30  1  0.626686  0.041086  0.294457  0  .  1
 
