#\#CIF1.1
##########################################################################
#               Crystallographic Information Format file 
#               Produced by PyCifRW module
# 
#  This is a CIF file.  CIF has been adopted by the International
#  Union of Crystallography as the standard for data archiving and 
#  transmission.
#
#  For information on this file format, follow the CIF links at
#  http://www.iucr.org
##########################################################################

data_Na2Ti2Se9
_symmetry_space_group_name_H-M          'P 1'
_cell_length_a                          13.115348553
_cell_length_b                          14.0229422119
_cell_length_c                          15.23769542
_cell_angle_alpha                       90.0
_cell_angle_beta                        90.0
_cell_angle_gamma                       94.4108961554
_chemical_name_systematic               'Generated by pymatgen'
_symmetry_Int_Tables_number             1
_chemical_formula_structural            Na2Ti2Se9
_chemical_formula_sum                   'Na16 Ti16 Se72'
_cell_volume                            2794.15209984
_cell_formula_units_Z                   8
loop_
  _symmetry_equiv_pos_site_id
  _symmetry_equiv_pos_as_xyz
   1  'x, y, z'
 
loop_
  _atom_site_type_symbol
  _atom_site_label
  _atom_site_symmetry_multiplicity
  _atom_site_fract_x
  _atom_site_fract_y
  _atom_site_fract_z
  _atom_site_attached_hydrogens
  _atom_site_B_iso_or_equiv
  _atom_site_occupancy
   Na  Na1  1  0.780337  0.390552  0.962767  0  .  1
   Na  Na2  1  0.695577  0.581003  0.734674  0  .  1
   Na  Na3  1  0.912114  0.366920  0.438545  0  .  1
   Na  Na4  1  0.640800  0.622424  0.261460  0  .  1
   Na  Na5  1  0.359200  0.377576  0.761460  0  .  1
   Na  Na6  1  0.118033  0.122313  0.528367  0  .  1
   Na  Na7  1  0.822185  0.949433  0.494893  0  .  1
   Na  Na8  1  0.304423  0.418997  0.234674  0  .  1
   Na  Na9  1  0.087886  0.633080  0.938545  0  .  1
   Na  Na10  1  0.219663  0.609448  0.462767  0  .  1
   Na  Na11  1  0.881967  0.877687  0.028367  0  .  1
   Na  Na12  1  0.632310  0.128611  0.256252  0  .  1
   Na  Na13  1  0.367690  0.871389  0.756252  0  .  1
   Na  Na14  1  0.679067  0.153387  0.665794  0  .  1
   Na  Na15  1  0.320933  0.846613  0.165794  0  .  1
   Na  Na16  1  0.177815  0.050567  0.994893  0  .  1
   Ti  Ti17  1  0.010867  0.519161  0.232245  0  .  1
   Ti  Ti18  1  0.989133  0.480839  0.732245  0  .  1
   Ti  Ti19  1  0.490233  0.737215  0.968317  0  .  1
   Ti  Ti20  1  0.990182  0.979668  0.723549  0  .  1
   Ti  Ti21  1  0.980829  0.737651  0.732584  0  .  1
   Ti  Ti22  1  0.513887  0.497312  0.967418  0  .  1
   Ti  Ti23  1  0.492703  0.994373  0.976379  0  .  1
   Ti  Ti24  1  0.509767  0.262785  0.468317  0  .  1
   Ti  Ti25  1  0.507297  0.005627  0.476379  0  .  1
   Ti  Ti26  1  0.009818  0.020332  0.223549  0  .  1
   Ti  Ti27  1  0.018544  0.762305  0.220746  0  .  1
   Ti  Ti28  1  0.019171  0.262349  0.232584  0  .  1
   Ti  Ti29  1  0.493950  0.761341  0.464714  0  .  1
   Ti  Ti30  1  0.506050  0.238659  0.964714  0  .  1
   Ti  Ti31  1  0.486113  0.502688  0.467418  0  .  1
   Ti  Ti32  1  0.981456  0.237695  0.720746  0  .  1
   Se  Se33  1  0.321266  0.212094  0.904469  0  .  1
   Se  Se34  1  0.337400  0.480861  0.573492  0  .  1
   Se  Se35  1  0.566845  0.634656  0.568737  0  .  1
   Se  Se36  1  0.662600  0.519139  0.073492  0  .  1
   Se  Se37  1  0.952728  0.887664  0.334200  0  .  1
   Se  Se38  1  0.951081  0.145196  0.350732  0  .  1
   Se  Se39  1  0.508040  0.999251  0.644526  0  .  1
   Se  Se40  1  0.358411  0.858828  0.955703  0  .  1
   Se  Se41  1  0.104939  0.986815  0.368707  0  .  1
   Se  Se42  1  0.641589  0.141172  0.455703  0  .  1
   Se  Se43  1  0.409056  0.614988  0.074501  0  .  1
   Se  Se44  1  0.895061  0.013185  0.868707  0  .  1
   Se  Se45  1  0.090974  0.900082  0.125864  0  .  1
   Se  Se46  1  0.392165  0.108694  0.066357  0  .  1
   Se  Se47  1  0.048168  0.865849  0.607561  0  .  1
   Se  Se48  1  0.343894  0.369638  0.454894  0  .  1
   Se  Se49  1  0.638562  0.253151  0.089266  0  .  1
   Se  Se50  1  0.479475  0.255414  0.634952  0  .  1
   Se  Se51  1  0.166023  0.648262  0.204288  0  .  1
   Se  Se52  1  0.318640  0.446638  0.976380  0  .  1
   Se  Se53  1  0.167954  0.149372  0.231261  0  .  1
   Se  Se54  1  0.450782  0.269099  0.306749  0  .  1
   Se  Se55  1  0.824786  0.240717  0.823712  0  .  1
   Se  Se56  1  0.916018  0.517181  0.578490  0  .  1
   Se  Se57  1  0.361438  0.746849  0.589266  0  .  1
   Se  Se58  1  0.048919  0.854804  0.850732  0  .  1
   Se  Se59  1  0.165980  0.747502  0.790130  0  .  1
   Se  Se60  1  0.899824  0.598813  0.821945  0  .  1
   Se  Se61  1  0.491960  0.000749  0.144526  0  .  1
   Se  Se62  1  0.846860  0.743292  0.611730  0  .  1
   Se  Se63  1  0.575895  0.392222  0.353086  0  .  1
   Se  Se64  1  0.381803  0.032983  0.349708  0  .  1
   Se  Se65  1  0.569563  0.373323  0.863049  0  .  1
   Se  Se66  1  0.430437  0.626677  0.363049  0  .  1
   Se  Se67  1  0.828726  0.017052  0.166903  0  .  1
   Se  Se68  1  0.175214  0.759283  0.323712  0  .  1
   Se  Se69  1  0.607835  0.891306  0.566357  0  .  1
   Se  Se70  1  0.159655  0.481801  0.809859  0  .  1
   Se  Se71  1  0.834020  0.252498  0.290129  0  .  1
   Se  Se72  1  0.653232  0.133719  0.977335  0  .  1
   Se  Se73  1  0.443222  0.109439  0.847956  0  .  1
   Se  Se74  1  0.971844  0.636698  0.352767  0  .  1
   Se  Se75  1  0.634301  0.877086  0.982980  0  .  1
   Se  Se76  1  0.346768  0.866281  0.477335  0  .  1
   Se  Se77  1  0.656106  0.630362  0.954894  0  .  1
   Se  Se78  1  0.909026  0.099918  0.625864  0  .  1
   Se  Se79  1  0.832046  0.850628  0.731261  0  .  1
   Se  Se80  1  0.681360  0.553362  0.476380  0  .  1
   Se  Se81  1  0.590944  0.385012  0.574501  0  .  1
   Se  Se82  1  0.172205  0.247527  0.683241  0  .  1
   Se  Se83  1  0.066466  0.355964  0.612087  0  .  1
   Se  Se84  1  0.424105  0.607778  0.853086  0  .  1
   Se  Se85  1  0.520525  0.744586  0.134952  0  .  1
   Se  Se86  1  0.433155  0.365344  0.068737  0  .  1
   Se  Se87  1  0.678734  0.787906  0.404469  0  .  1
   Se  Se88  1  0.047272  0.112336  0.834200  0  .  1
   Se  Se89  1  0.556778  0.890561  0.347956  0  .  1
   Se  Se90  1  0.933534  0.644036  0.112087  0  .  1
   Se  Se91  1  0.827795  0.752473  0.183241  0  .  1
   Se  Se92  1  0.153140  0.256708  0.111730  0  .  1
   Se  Se93  1  0.171274  0.982948  0.666903  0  .  1
   Se  Se94  1  0.365698  0.122914  0.482980  0  .  1
   Se  Se95  1  0.549218  0.730901  0.806749  0  .  1
   Se  Se96  1  0.840345  0.518199  0.309859  0  .  1
   Se  Se97  1  0.100176  0.401187  0.321945  0  .  1
   Se  Se98  1  0.935975  0.386561  0.129212  0  .  1
   Se  Se99  1  0.064025  0.613439  0.629212  0  .  1
   Se  Se100  1  0.083982  0.482819  0.078490  0  .  1
   Se  Se101  1  0.951832  0.134151  0.107561  0  .  1
   Se  Se102  1  0.833977  0.351738  0.704288  0  .  1
   Se  Se103  1  0.028156  0.363302  0.852767  0  .  1
   Se  Se104  1  0.618197  0.967017  0.849708  0  .  1
 
