#\#CIF1.1
##########################################################################
#               Crystallographic Information Format file 
#               Produced by PyCifRW module
# 
#  This is a CIF file.  CIF has been adopted by the International
#  Union of Crystallography as the standard for data archiving and 
#  transmission.
#
#  For information on this file format, follow the CIF links at
#  http://www.iucr.org
##########################################################################

data_Na2V6O15
_symmetry_space_group_name_H-M          'P 1'
_cell_length_a                          3.66621903325
_cell_length_b                          8.10089075488
_cell_length_c                          10.6182132734
_cell_angle_alpha                       77.2203115067
_cell_angle_beta                        89.8732124281
_cell_angle_gamma                       76.968528008
_chemical_name_systematic               'Generated by pymatgen'
_symmetry_Int_Tables_number             1
_chemical_formula_structural            Na2V6O15
_chemical_formula_sum                   'Na2 V6 O15'
_cell_volume                            299.24733449
_cell_formula_units_Z                   1
loop_
  _symmetry_equiv_pos_site_id
  _symmetry_equiv_pos_as_xyz
   1  'x, y, z'
 
loop_
  _atom_site_type_symbol
  _atom_site_label
  _atom_site_symmetry_multiplicity
  _atom_site_fract_x
  _atom_site_fract_y
  _atom_site_fract_z
  _atom_site_attached_hydrogens
  _atom_site_B_iso_or_equiv
  _atom_site_occupancy
   Na  Na1  1  0.540367  0.914425  0.346591  0  .  1
   Na  Na2  1  0.458007  0.084569  0.654130  0  .  1
   V  V3  1  0.676078  0.649453  0.904134  0  .  1
   V  V4  1  0.103133  0.791901  0.098641  0  .  1
   V  V5  1  0.715930  0.566991  0.593903  0  .  1
   V  V6  1  0.284168  0.431906  0.405249  0  .  1
   V  V7  1  0.880679  0.237046  0.889990  0  .  1
   V  V8  1  0.322788  0.349187  0.102220  0  .  1
   O  O9  1  0.582851  0.840307  0.806225  0  .  1
   O  O10  1  0.188100  0.623866  0.959345  0  .  1
   O  O11  1  0.607617  0.782574  0.557071  0  .  1
   O  O12  1  0.091472  0.813274  0.251458  0  .  1
   O  O13  1  0.746390  0.506484  0.791519  0  .  1
   O  O14  1  0.632022  0.734320  0.073915  0  .  1
   O  O15  1  0.255889  0.487053  0.578146  0  .  1
   O  O16  1  0.748502  0.503173  0.416677  0  .  1
   O  O17  1  0.369743  0.258571  0.929772  0  .  1
   O  O18  1  0.258039  0.481936  0.219225  0  .  1
   O  O19  1  0.905358  0.189486  0.745127  0  .  1
   O  O20  1  0.392111  0.217486  0.441259  0  .  1
   O  O21  1  0.808494  0.379550  0.046764  0  .  1
   O  O22  1  0.416997  0.155307  0.195760  0  .  1
   O  O23  1  0.999527  -0.000729  0.001749  0  .  1
 
