#\#CIF1.1
##########################################################################
#               Crystallographic Information Format file 
#               Produced by PyCifRW module
# 
#  This is a CIF file.  CIF has been adopted by the International
#  Union of Crystallography as the standard for data archiving and 
#  transmission.
#
#  For information on this file format, follow the CIF links at
#  http://www.iucr.org
##########################################################################

data_Na3(NiO2)5
_symmetry_space_group_name_H-M          'P 1'
_cell_length_a                          7.16270504616
_cell_length_b                          4.90058143114
_cell_length_c                          6.40358927165
_cell_angle_alpha                       74.4676129628
_cell_angle_beta                        110.152626307
_cell_angle_gamma                       81.9893979863
_chemical_name_systematic               'Generated by pymatgen'
_symmetry_Int_Tables_number             1
_chemical_formula_structural            Na3(NiO2)5
_chemical_formula_sum                   'Na3 Ni5 O10'
_cell_volume                            196.528923193
_cell_formula_units_Z                   1
loop_
  _symmetry_equiv_pos_site_id
  _symmetry_equiv_pos_as_xyz
   1  'x, y, z'
 
loop_
  _atom_site_type_symbol
  _atom_site_label
  _atom_site_symmetry_multiplicity
  _atom_site_fract_x
  _atom_site_fract_y
  _atom_site_fract_z
  _atom_site_attached_hydrogens
  _atom_site_B_iso_or_equiv
  _atom_site_occupancy
   Na  Na1  1  0.195087  0.404232  0.698660  0  .  1
   Na  Na2  1  0.800000  0.600000  0.300000  0  .  1
   Na  Na3  1  0.404913  0.795768  0.901340  0  .  1
   Ni  Ni4  1  0.002114  0.003916  0.000379  0  .  1
   Ni  Ni5  1  0.203804  0.399711  0.199260  0  .  1
   Ni  Ni6  1  0.396195  0.800289  0.400740  0  .  1
   Ni  Ni7  1  0.597886  0.196084  0.599621  0  .  1
   Ni  Ni8  1  0.800000  0.600000  0.800000  0  .  1
   O  O9  1  0.288660  0.097261  0.100255  0  .  1
   O  O10  1  0.311340  0.102739  0.499745  0  .  1
   O  O11  1  0.132476  0.705767  0.308912  0  .  1
   O  O12  1  0.467524  0.494233  0.291088  0  .  1
   O  O13  1  0.091942  0.694962  0.900699  0  .  1
   O  O14  1  0.944058  0.318109  0.113591  0  .  1
   O  O15  1  0.508058  0.505038  0.699301  0  .  1
   O  O16  1  0.655942  0.881891  0.486409  0  .  1
   O  O17  1  0.883349  0.297661  0.695631  0  .  1
   O  O18  1  0.716651  0.902339  0.904369  0  .  1
 
