#\#CIF1.1
##########################################################################
#               Crystallographic Information Format file 
#               Produced by PyCifRW module
# 
#  This is a CIF file.  CIF has been adopted by the International
#  Union of Crystallography as the standard for data archiving and 
#  transmission.
#
#  For information on this file format, follow the CIF links at
#  http://www.iucr.org
##########################################################################

data_Na3(FeS2)2
_symmetry_space_group_name_H-M          'P 1'
_cell_length_a                          6.66314217
_cell_length_b                          10.49862472
_cell_length_c                          10.69988835
_cell_angle_alpha                       90.0
_cell_angle_beta                        90.0
_cell_angle_gamma                       90.0
_chemical_name_systematic               'Generated by pymatgen'
_symmetry_Int_Tables_number             1
_chemical_formula_structural            Na3(FeS2)2
_chemical_formula_sum                   'Na12 Fe8 S16'
_cell_volume                            748.498161013
_cell_formula_units_Z                   4
loop_
  _symmetry_equiv_pos_site_id
  _symmetry_equiv_pos_as_xyz
   1  'x, y, z'
 
loop_
  _atom_site_type_symbol
  _atom_site_label
  _atom_site_symmetry_multiplicity
  _atom_site_fract_x
  _atom_site_fract_y
  _atom_site_fract_z
  _atom_site_attached_hydrogens
  _atom_site_B_iso_or_equiv
  _atom_site_occupancy
   Na  Na1  1  0.082103  0.250000  0.765147  0  .  1
   Na  Na2  1  0.582103  0.250000  0.734853  0  .  1
   Na  Na3  1  0.917897  0.750000  0.234853  0  .  1
   Na  Na4  1  0.417897  0.750000  0.265147  0  .  1
   Na  Na5  1  0.043118  0.415104  0.143636  0  .  1
   Na  Na6  1  0.543118  0.084896  0.356364  0  .  1
   Na  Na7  1  0.956882  0.915104  0.856364  0  .  1
   Na  Na8  1  0.456882  0.584896  0.643636  0  .  1
   Na  Na9  1  0.956882  0.584896  0.856364  0  .  1
   Na  Na10  1  0.456882  0.915104  0.643636  0  .  1
   Na  Na11  1  0.043118  0.084896  0.143636  0  .  1
   Na  Na12  1  0.543118  0.415104  0.356364  0  .  1
   Fe  Fe13  1  0.046038  0.374051  0.471147  0  .  1
   Fe  Fe14  1  0.546038  0.125949  0.028853  0  .  1
   Fe  Fe15  1  0.953962  0.874051  0.528853  0  .  1
   Fe  Fe16  1  0.453962  0.625949  0.971147  0  .  1
   Fe  Fe17  1  0.953962  0.625949  0.528853  0  .  1
   Fe  Fe18  1  0.453962  0.874051  0.971147  0  .  1
   Fe  Fe19  1  0.046038  0.125949  0.471147  0  .  1
   Fe  Fe20  1  0.546038  0.374051  0.028853  0  .  1
   S  S21  1  0.165335  0.551865  0.377210  0  .  1
   S  S22  1  0.665335  0.948135  0.122790  0  .  1
   S  S23  1  0.834665  0.051865  0.622790  0  .  1
   S  S24  1  0.334665  0.448135  0.877210  0  .  1
   S  S25  1  0.834665  0.448135  0.622790  0  .  1
   S  S26  1  0.334665  0.051865  0.877210  0  .  1
   S  S27  1  0.165335  0.948135  0.377210  0  .  1
   S  S28  1  0.665335  0.551865  0.122790  0  .  1
   S  S29  1  0.305038  0.250000  0.537734  0  .  1
   S  S30  1  0.805038  0.250000  0.962266  0  .  1
   S  S31  1  0.694962  0.750000  0.462266  0  .  1
   S  S32  1  0.194962  0.750000  0.037734  0  .  1
   S  S33  1  0.376570  0.250000  0.164722  0  .  1
   S  S34  1  0.876570  0.250000  0.335278  0  .  1
   S  S35  1  0.623430  0.750000  0.835278  0  .  1
   S  S36  1  0.123430  0.750000  0.664722  0  .  1
 
