#\#CIF1.1
##########################################################################
#               Crystallographic Information Format file 
#               Produced by PyCifRW module
# 
#  This is a CIF file.  CIF has been adopted by the International
#  Union of Crystallography as the standard for data archiving and 
#  transmission.
#
#  For information on this file format, follow the CIF links at
#  http://www.iucr.org
##########################################################################

data_Na3(NiO2)2
_symmetry_space_group_name_H-M          'P 1'
_cell_length_a                          4.88586453656
_cell_length_b                          4.88586453656
_cell_length_c                          10.48284913
_cell_angle_alpha                       90.0
_cell_angle_beta                        90.0
_cell_angle_gamma                       70.649674969
_chemical_name_systematic               'Generated by pymatgen'
_symmetry_Int_Tables_number             1
_chemical_formula_structural            Na3(NiO2)2
_chemical_formula_sum                   'Na6 Ni4 O8'
_cell_volume                            236.106975131
_cell_formula_units_Z                   2
loop_
  _symmetry_equiv_pos_site_id
  _symmetry_equiv_pos_as_xyz
   1  'x, y, z'
 
loop_
  _atom_site_type_symbol
  _atom_site_label
  _atom_site_symmetry_multiplicity
  _atom_site_fract_x
  _atom_site_fract_y
  _atom_site_fract_z
  _atom_site_attached_hydrogens
  _atom_site_B_iso_or_equiv
  _atom_site_occupancy
   Na  Na1  1  0.351267  0.351267  0.064748  0  .  1
   Na  Na2  1  0.351267  0.351267  0.435252  0  .  1
   Na  Na3  1  0.648733  0.648733  0.564748  0  .  1
   Na  Na4  1  0.685843  0.685843  0.250000  0  .  1
   Na  Na5  1  0.314157  0.314157  0.750000  0  .  1
   Na  Na6  1  0.648733  0.648733  0.935252  0  .  1
   Ni  Ni7  1  0.000000  0.000000  0.000000  0  .  1
   Ni  Ni8  1  0.071859  0.071859  0.250000  0  .  1
   Ni  Ni9  1  0.000000  0.000000  0.500000  0  .  1
   Ni  Ni10  1  0.928141  0.928141  0.750000  0  .  1
   O  O11  1  0.296296  0.860113  0.119374  0  .  1
   O  O12  1  0.296296  0.860113  0.380626  0  .  1
   O  O13  1  0.139887  0.703704  0.880626  0  .  1
   O  O14  1  0.139887  0.703704  0.619374  0  .  1
   O  O15  1  0.860113  0.296296  0.380626  0  .  1
   O  O16  1  0.860113  0.296296  0.119374  0  .  1
   O  O17  1  0.703704  0.139887  0.619374  0  .  1
   O  O18  1  0.703704  0.139887  0.880626  0  .  1
 
