#\#CIF1.1
##########################################################################
#               Crystallographic Information Format file 
#               Produced by PyCifRW module
# 
#  This is a CIF file.  CIF has been adopted by the International
#  Union of Crystallography as the standard for data archiving and 
#  transmission.
#
#  For information on this file format, follow the CIF links at
#  http://www.iucr.org
##########################################################################

data_Na3(VSe2)5
_symmetry_space_group_name_H-M          'P 1'
_cell_length_a                          38.0166094286
_cell_length_b                          22.2995313886
_cell_length_c                          14.7709314593
_cell_angle_alpha                       12.2688392009
_cell_angle_beta                        13.5872087172
_cell_angle_gamma                       9.06245544271
_chemical_name_systematic               'Generated by pymatgen'
_symmetry_Int_Tables_number             1
_chemical_formula_structural            Na3(VSe2)5
_chemical_formula_sum                   'Na3 V5 Se10'
_cell_volume                            409.723732944
_cell_formula_units_Z                   1
loop_
  _symmetry_equiv_pos_site_id
  _symmetry_equiv_pos_as_xyz
   1  'x, y, z'
 
loop_
  _atom_site_type_symbol
  _atom_site_label
  _atom_site_symmetry_multiplicity
  _atom_site_fract_x
  _atom_site_fract_y
  _atom_site_fract_z
  _atom_site_attached_hydrogens
  _atom_site_B_iso_or_equiv
  _atom_site_occupancy
   Na  Na1  1  0.346016  0.141046  0.168466  0  .  1
   Na  Na2  1  0.575753  0.120975  0.129758  0  .  1
   Na  Na3  1  0.736815  0.178363  0.142788  0  .  1
   V  V4  1  0.029406  0.940323  0.015471  0  .  1
   V  V5  1  0.193925  0.036887  0.963267  0  .  1
   V  V6  1  0.363538  0.041425  0.028854  0  .  1
   V  V7  1  0.565767  0.012851  0.065208  0  .  1
   V  V8  1  0.830086  0.988571  0.941259  0  .  1
   Se  Se9  1  0.028805  0.402590  0.429207  0  .  1
   Se  Se10  1  0.234577  0.400062  0.425788  0  .  1
   Se  Se11  1  0.162570  0.614320  0.566399  0  .  1
   Se  Se12  1  0.446515  0.388277  0.394300  0  .  1
   Se  Se13  1  0.355102  0.606236  0.595829  0  .  1
   Se  Se14  1  0.638871  0.384790  0.415872  0  .  1
   Se  Se15  1  0.554860  0.599193  0.610826  0  .  1
   Se  Se16  1  0.840395  0.406700  0.392091  0  .  1
   Se  Se17  1  0.755105  0.612545  0.604939  0  .  1
   Se  Se18  1  0.941854  0.624947  0.609777  0  .  1
 
