#\#CIF1.1
##########################################################################
#               Crystallographic Information Format file 
#               Produced by PyCifRW module
# 
#  This is a CIF file.  CIF has been adopted by the International
#  Union of Crystallography as the standard for data archiving and 
#  transmission.
#
#  For information on this file format, follow the CIF links at
#  http://www.iucr.org
##########################################################################

data_Na3CuO2
_symmetry_space_group_name_H-M          'P 1'
_cell_length_a                          9.51104634
_cell_length_b                          9.51104634
_cell_length_c                          4.59468875
_cell_angle_alpha                       90.0
_cell_angle_beta                        90.0
_cell_angle_gamma                       90.0
_chemical_name_systematic               'Generated by pymatgen'
_symmetry_Int_Tables_number             1
_chemical_formula_structural            Na3CuO2
_chemical_formula_sum                   'Na12 Cu4 O8'
_cell_volume                            415.635555727
_cell_formula_units_Z                   4
loop_
  _symmetry_equiv_pos_site_id
  _symmetry_equiv_pos_as_xyz
   1  'x, y, z'
 
loop_
  _atom_site_type_symbol
  _atom_site_label
  _atom_site_symmetry_multiplicity
  _atom_site_fract_x
  _atom_site_fract_y
  _atom_site_fract_z
  _atom_site_attached_hydrogens
  _atom_site_B_iso_or_equiv
  _atom_site_occupancy
   Na  Na1  1  0.986202  0.656026  0.500000  0  .  1
   Na  Na2  1  0.156026  0.513798  0.000000  0  .  1
   Na  Na3  1  0.158224  0.841776  0.000000  0  .  1
   Na  Na4  1  0.341776  0.341776  0.500000  0  .  1
   Na  Na5  1  0.343974  0.013798  0.500000  0  .  1
   Na  Na6  1  0.513798  0.156026  0.000000  0  .  1
   Na  Na7  1  0.486202  0.843974  0.000000  0  .  1
   Na  Na8  1  0.656026  0.986202  0.500000  0  .  1
   Na  Na9  1  0.658224  0.658224  0.500000  0  .  1
   Na  Na10  1  0.841776  0.158224  0.000000  0  .  1
   Na  Na11  1  0.843974  0.486202  0.000000  0  .  1
   Na  Na12  1  0.013798  0.343974  0.500000  0  .  1
   Cu  Cu13  1  0.166588  0.166588  0.000000  0  .  1
   Cu  Cu14  1  0.333412  0.666588  0.500000  0  .  1
   Cu  Cu15  1  0.666588  0.333412  0.500000  0  .  1
   Cu  Cu16  1  0.833412  0.833412  0.000000  0  .  1
   O  O17  1  0.030083  0.300474  0.000000  0  .  1
   O  O18  1  0.199526  0.530083  0.500000  0  .  1
   O  O19  1  0.300474  0.030083  0.000000  0  .  1
   O  O20  1  0.469917  0.800475  0.500000  0  .  1
   O  O21  1  0.530083  0.199526  0.500000  0  .  1
   O  O22  1  0.699525  0.969917  0.000000  0  .  1
   O  O23  1  0.800475  0.469917  0.500000  0  .  1
   O  O24  1  0.969917  0.699525  0.000000  0  .  1
 
