#\#CIF1.1
##########################################################################
#               Crystallographic Information Format file 
#               Produced by PyCifRW module
# 
#  This is a CIF file.  CIF has been adopted by the International
#  Union of Crystallography as the standard for data archiving and 
#  transmission.
#
#  For information on this file format, follow the CIF links at
#  http://www.iucr.org
##########################################################################

data_Na3CoO3
_symmetry_space_group_name_H-M          'P 1'
_cell_length_a                          6.62600688503
_cell_length_b                          6.62600688503
_cell_length_c                          4.77971878
_cell_angle_alpha                       90.0
_cell_angle_beta                        90.0
_cell_angle_gamma                       78.449353569
_chemical_name_systematic               'Generated by pymatgen'
_symmetry_Int_Tables_number             1
_chemical_formula_structural            Na3CoO3
_chemical_formula_sum                   'Na6 Co2 O6'
_cell_volume                            205.598781672
_cell_formula_units_Z                   2
loop_
  _symmetry_equiv_pos_site_id
  _symmetry_equiv_pos_as_xyz
   1  'x, y, z'
 
loop_
  _atom_site_type_symbol
  _atom_site_label
  _atom_site_symmetry_multiplicity
  _atom_site_fract_x
  _atom_site_fract_y
  _atom_site_fract_z
  _atom_site_attached_hydrogens
  _atom_site_B_iso_or_equiv
  _atom_site_occupancy
   Na  Na1  1  0.114572  0.666433  0.250000  0  .  1
   Na  Na2  1  0.333567  0.885428  0.750000  0  .  1
   Na  Na3  1  0.600155  0.600155  0.250000  0  .  1
   Na  Na4  1  0.399845  0.399845  0.750000  0  .  1
   Na  Na5  1  0.666433  0.114572  0.250000  0  .  1
   Na  Na6  1  0.885428  0.333567  0.750000  0  .  1
   Co  Co7  1  0.197294  0.197294  0.250000  0  .  1
   Co  Co8  1  0.802706  0.802706  0.750000  0  .  1
   O  O9  1  0.067798  0.686066  0.750000  0  .  1
   O  O10  1  0.313934  0.932202  0.250000  0  .  1
   O  O11  1  0.372602  0.372602  0.250000  0  .  1
   O  O12  1  0.627398  0.627398  0.750000  0  .  1
   O  O13  1  0.932202  0.313934  0.250000  0  .  1
   O  O14  1  0.686066  0.067798  0.750000  0  .  1
 
