#\#CIF1.1
##########################################################################
#               Crystallographic Information Format file 
#               Produced by PyCifRW module
# 
#  This is a CIF file.  CIF has been adopted by the International
#  Union of Crystallography as the standard for data archiving and 
#  transmission.
#
#  For information on this file format, follow the CIF links at
#  http://www.iucr.org
##########################################################################

data_Na3CoO2
_symmetry_space_group_name_H-M          'P 1'
_cell_length_a                          4.67912223
_cell_length_b                          9.4471802478
_cell_length_c                          9.44721293279
_cell_angle_alpha                       90.0018843792
_cell_angle_beta                        90.0
_cell_angle_gamma                       90.0
_chemical_name_systematic               'Generated by pymatgen'
_symmetry_Int_Tables_number             1
_chemical_formula_structural            Na3CoO2
_chemical_formula_sum                   'Na12 Co4 O8'
_cell_volume                            417.609428804
_cell_formula_units_Z                   4
loop_
  _symmetry_equiv_pos_site_id
  _symmetry_equiv_pos_as_xyz
   1  'x, y, z'
 
loop_
  _atom_site_type_symbol
  _atom_site_label
  _atom_site_symmetry_multiplicity
  _atom_site_fract_x
  _atom_site_fract_y
  _atom_site_fract_z
  _atom_site_attached_hydrogens
  _atom_site_B_iso_or_equiv
  _atom_site_occupancy
   Na  Na1  1  0.500000  0.141271  0.141269  0  .  1
   Na  Na2  1  0.500000  0.858723  0.858722  0  .  1
   Na  Na3  1  0.000000  0.358715  0.641284  0  .  1
   Na  Na4  1  0.000000  0.026077  0.658346  0  .  1
   Na  Na5  1  0.000000  0.973921  0.341653  0  .  1
   Na  Na6  1  0.500000  0.841635  0.526074  0  .  1
   Na  Na7  1  0.500000  0.158365  0.473926  0  .  1
   Na  Na8  1  0.000000  0.658347  0.026079  0  .  1
   Na  Na9  1  0.500000  0.473926  0.158366  0  .  1
   Na  Na10  1  0.000000  0.641283  0.358717  0  .  1
   Na  Na11  1  0.000000  0.341650  0.973922  0  .  1
   Na  Na12  1  0.500000  0.526075  0.841635  0  .  1
   Co  Co13  1  0.500000  0.176901  0.822979  0  .  1
   Co  Co14  1  0.000000  0.676955  0.676956  0  .  1
   Co  Co15  1  0.000000  0.323020  0.323063  0  .  1
   Co  Co16  1  0.500000  0.823008  0.176931  0  .  1
   O  O17  1  0.500000  0.040102  0.695193  0  .  1
   O  O18  1  0.000000  0.804832  0.540065  0  .  1
   O  O19  1  0.500000  0.695172  0.040085  0  .  1
   O  O20  1  0.000000  0.459942  0.195151  0  .  1
   O  O21  1  0.500000  0.304880  0.959975  0  .  1
   O  O22  1  0.000000  0.540066  0.804836  0  .  1
   O  O23  1  0.500000  0.959953  0.304858  0  .  1
   O  O24  1  0.000000  0.195181  0.459913  0  .  1
 
