#\#CIF1.1
##########################################################################
#               Crystallographic Information Format file 
#               Produced by PyCifRW module
# 
#  This is a CIF file.  CIF has been adopted by the International
#  Union of Crystallography as the standard for data archiving and 
#  transmission.
#
#  For information on this file format, follow the CIF links at
#  http://www.iucr.org
##########################################################################

data_Na3Fe5O8
_symmetry_space_group_name_H-M          'P 1'
_cell_length_a                          8.72514134666
_cell_length_b                          8.85311508588
_cell_length_c                          8.88614072545
_cell_angle_alpha                       90.5242383391
_cell_angle_beta                        90.4321338373
_cell_angle_gamma                       89.543166833
_chemical_name_systematic               'Generated by pymatgen'
_symmetry_Int_Tables_number             1
_chemical_formula_structural            Na3Fe5O8
_chemical_formula_sum                   'Na12 Fe20 O32'
_cell_volume                            686.337403752
_cell_formula_units_Z                   4
loop_
  _symmetry_equiv_pos_site_id
  _symmetry_equiv_pos_as_xyz
   1  'x, y, z'
 
loop_
  _atom_site_type_symbol
  _atom_site_label
  _atom_site_symmetry_multiplicity
  _atom_site_fract_x
  _atom_site_fract_y
  _atom_site_fract_z
  _atom_site_attached_hydrogens
  _atom_site_B_iso_or_equiv
  _atom_site_occupancy
   Na  Na1  1  0.125995  0.122508  0.130353  0  .  1
   Na  Na2  1  0.125896  0.626318  0.625626  0  .  1
   Na  Na3  1  0.123915  0.371922  0.372758  0  .  1
   Na  Na4  1  0.125353  0.879018  0.373353  0  .  1
   Na  Na5  1  0.130612  0.876937  0.875929  0  .  1
   Na  Na6  1  0.370128  0.127115  0.374564  0  .  1
   Na  Na7  1  0.374135  0.122035  0.874525  0  .  1
   Na  Na8  1  0.375591  0.627669  0.871889  0  .  1
   Na  Na9  1  0.616043  0.125186  0.624874  0  .  1
   Na  Na10  1  0.626379  0.624013  0.122926  0  .  1
   Na  Na11  1  0.621197  0.625227  0.626419  0  .  1
   Na  Na12  1  0.876513  0.370880  0.126997  0  .  1
   Fe  Fe13  1  0.122657  0.123548  0.620238  0  .  1
   Fe  Fe14  1  0.128038  0.627788  0.126621  0  .  1
   Fe  Fe15  1  0.132581  0.372721  0.875381  0  .  1
   Fe  Fe16  1  0.380634  0.367711  0.123683  0  .  1
   Fe  Fe17  1  0.374488  0.374948  0.621452  0  .  1
   Fe  Fe18  1  0.364446  0.624262  0.377585  0  .  1
   Fe  Fe19  1  0.375327  0.878435  0.125978  0  .  1
   Fe  Fe20  1  0.369364  0.878355  0.626033  0  .  1
   Fe  Fe21  1  0.624827  0.126441  0.127381  0  .  1
   Fe  Fe22  1  0.624169  0.380686  0.377021  0  .  1
   Fe  Fe23  1  0.621370  0.375220  0.871648  0  .  1
   Fe  Fe24  1  0.624984  0.869300  0.378521  0  .  1
   Fe  Fe25  1  0.624279  0.873139  0.874326  0  .  1
   Fe  Fe26  1  0.872179  0.126211  0.375646  0  .  1
   Fe  Fe27  1  0.871637  0.368812  0.622167  0  .  1
   Fe  Fe28  1  0.875263  0.623727  0.376697  0  .  1
   Fe  Fe29  1  0.875184  0.124982  0.879033  0  .  1
   Fe  Fe30  1  0.873663  0.621901  0.860707  0  .  1
   Fe  Fe31  1  0.878760  0.877737  0.126736  0  .  1
   Fe  Fe32  1  0.875673  0.877976  0.624347  0  .  1
   O  O33  1  0.149923  0.386077  0.103377  0  .  1
   O  O34  1  0.143136  0.855270  0.121284  0  .  1
   O  O35  1  0.135210  0.362424  0.645990  0  .  1
   O  O36  1  0.122330  0.892538  0.627586  0  .  1
   O  O37  1  0.098050  0.129189  0.397911  0  .  1
   O  O38  1  0.105060  0.149808  0.864050  0  .  1
   O  O39  1  0.119803  0.622083  0.356463  0  .  1
   O  O40  1  0.099880  0.602585  0.892183  0  .  1
   O  O41  1  0.351131  0.106970  0.622263  0  .  1
   O  O42  1  0.399619  0.138981  0.126053  0  .  1
   O  O43  1  0.391745  0.395460  0.366786  0  .  1
   O  O44  1  0.381527  0.377903  0.883960  0  .  1
   O  O45  1  0.362370  0.616465  0.145302  0  .  1
   O  O46  1  0.370012  0.640228  0.597105  0  .  1
   O  O47  1  0.396832  0.855931  0.384110  0  .  1
   O  O48  1  0.399858  0.872130  0.850142  0  .  1
   O  O49  1  0.638114  0.121857  0.351595  0  .  1
   O  O50  1  0.611615  0.357263  0.116861  0  .  1
   O  O51  1  0.610953  0.371574  0.642158  0  .  1
   O  O52  1  0.639442  0.630842  0.370647  0  .  1
   O  O53  1  0.641810  0.141375  0.900756  0  .  1
   O  O54  1  0.651525  0.605269  0.878934  0  .  1
   O  O55  1  0.615301  0.895098  0.134908  0  .  1
   O  O56  1  0.629777  0.879434  0.607757  0  .  1
   O  O57  1  0.882425  0.109352  0.630431  0  .  1
   O  O58  1  0.854005  0.105221  0.125841  0  .  1
   O  O59  1  0.857072  0.396049  0.394331  0  .  1
   O  O60  1  0.893549  0.642603  0.138434  0  .  1
   O  O61  1  0.878137  0.643823  0.623466  0  .  1
   O  O62  1  0.870571  0.387131  0.857340  0  .  1
   O  O63  1  0.857854  0.858603  0.389946  0  .  1
   O  O64  1  0.860088  0.857736  0.860611  0  .  1
 
