#\#CIF1.1
##########################################################################
#               Crystallographic Information Format file 
#               Produced by PyCifRW module
# 
#  This is a CIF file.  CIF has been adopted by the International
#  Union of Crystallography as the standard for data archiving and 
#  transmission.
#
#  For information on this file format, follow the CIF links at
#  http://www.iucr.org
##########################################################################

data_Na3FeS3
_symmetry_space_group_name_H-M          'P 1'
_cell_length_a                          6.91620207
_cell_length_b                          7.18380582954
_cell_length_c                          12.5278533223
_cell_angle_alpha                       91.3783330424
_cell_angle_beta                        90.0
_cell_angle_gamma                       90.0
_chemical_name_systematic               'Generated by pymatgen'
_symmetry_Int_Tables_number             1
_chemical_formula_structural            Na3FeS3
_chemical_formula_sum                   'Na12 Fe4 S12'
_cell_volume                            622.261943112
_cell_formula_units_Z                   4
loop_
  _symmetry_equiv_pos_site_id
  _symmetry_equiv_pos_as_xyz
   1  'x, y, z'
 
loop_
  _atom_site_type_symbol
  _atom_site_label
  _atom_site_symmetry_multiplicity
  _atom_site_fract_x
  _atom_site_fract_y
  _atom_site_fract_z
  _atom_site_attached_hydrogens
  _atom_site_B_iso_or_equiv
  _atom_site_occupancy
   Na  Na1  1  0.486381  0.343193  0.384790  0  .  1
   Na  Na2  1  0.013619  0.843193  0.884790  0  .  1
   Na  Na3  1  0.513619  0.656807  0.615210  0  .  1
   Na  Na4  1  0.515003  0.729035  0.216734  0  .  1
   Na  Na5  1  0.987314  0.289688  0.403616  0  .  1
   Na  Na6  1  0.986381  0.156807  0.115210  0  .  1
   Na  Na7  1  0.015003  0.770965  0.283266  0  .  1
   Na  Na8  1  0.487314  0.210312  0.096384  0  .  1
   Na  Na9  1  0.984997  0.229035  0.716734  0  .  1
   Na  Na10  1  0.512686  0.789688  0.903616  0  .  1
   Na  Na11  1  0.484997  0.270966  0.783266  0  .  1
   Na  Na12  1  0.012686  0.710312  0.596384  0  .  1
   Fe  Fe13  1  0.374323  0.074954  0.573689  0  .  1
   Fe  Fe14  1  0.625677  0.925046  0.426311  0  .  1
   Fe  Fe15  1  0.874323  0.425046  0.926311  0  .  1
   Fe  Fe16  1  0.125677  0.574954  0.073689  0  .  1
   S  S17  1  0.244174  0.865849  0.071214  0  .  1
   S  S18  1  0.775550  0.571359  0.778923  0  .  1
   S  S19  1  0.200978  0.413534  0.923930  0  .  1
   S  S20  1  0.275550  0.928641  0.721077  0  .  1
   S  S21  1  0.299022  0.913534  0.423930  0  .  1
   S  S22  1  0.799022  0.586466  0.076070  0  .  1
   S  S23  1  0.755826  0.134151  0.928786  0  .  1
   S  S24  1  0.224450  0.428641  0.221077  0  .  1
   S  S25  1  0.700978  0.086466  0.576070  0  .  1
   S  S26  1  0.724450  0.071359  0.278923  0  .  1
   S  S27  1  0.744174  0.634151  0.428786  0  .  1
   S  S28  1  0.255826  0.365849  0.571214  0  .  1
 
