#\#CIF1.1
##########################################################################
#               Crystallographic Information Format file 
#               Produced by PyCifRW module
# 
#  This is a CIF file.  CIF has been adopted by the International
#  Union of Crystallography as the standard for data archiving and 
#  transmission.
#
#  For information on this file format, follow the CIF links at
#  http://www.iucr.org
##########################################################################

data_Na3MnO3
_symmetry_space_group_name_H-M          'P 1'
_cell_length_a                          5.77769377132
_cell_length_b                          6.03088844188
_cell_length_c                          6.50600198135
_cell_angle_alpha                       64.3791162874
_cell_angle_beta                        91.0418245887
_cell_angle_gamma                       89.0641688048
_chemical_name_systematic               'Generated by pymatgen'
_symmetry_Int_Tables_number             1
_chemical_formula_structural            Na3MnO3
_chemical_formula_sum                   'Na6 Mn2 O6'
_cell_volume                            204.301598121
_cell_formula_units_Z                   2
loop_
  _symmetry_equiv_pos_site_id
  _symmetry_equiv_pos_as_xyz
   1  'x, y, z'
 
loop_
  _atom_site_type_symbol
  _atom_site_label
  _atom_site_symmetry_multiplicity
  _atom_site_fract_x
  _atom_site_fract_y
  _atom_site_fract_z
  _atom_site_attached_hydrogens
  _atom_site_B_iso_or_equiv
  _atom_site_occupancy
   Na  Na1  1  0.069548  0.763884  0.452696  0  .  1
   Na  Na2  1  0.127316  0.773670  0.988292  0  .  1
   Na  Na3  1  0.436812  0.242300  0.756749  0  .  1
   Na  Na4  1  0.563188  0.757700  0.243251  0  .  1
   Na  Na5  1  0.872684  0.226330  0.011708  0  .  1
   Na  Na6  1  0.930452  0.236116  0.547304  0  .  1
   Mn  Mn7  1  0.383373  0.204559  0.307146  0  .  1
   Mn  Mn8  1  0.616627  0.795441  0.692854  0  .  1
   O  O9  1  0.250424  0.093212  0.106142  0  .  1
   O  O10  1  0.245434  0.471575  0.339882  0  .  1
   O  O11  1  0.308317  0.927530  0.647620  0  .  1
   O  O12  1  0.691683  0.072470  0.352380  0  .  1
   O  O13  1  0.754566  0.528425  0.660118  0  .  1
   O  O14  1  0.749576  0.906788  0.893858  0  .  1
 
