#\#CIF1.1
##########################################################################
#               Crystallographic Information Format file 
#               Produced by PyCifRW module
# 
#  This is a CIF file.  CIF has been adopted by the International
#  Union of Crystallography as the standard for data archiving and 
#  transmission.
#
#  For information on this file format, follow the CIF links at
#  http://www.iucr.org
##########################################################################

data_Na3VS4
_symmetry_space_group_name_H-M          'P 1'
_cell_length_a                          8.01002668
_cell_length_b                          13.58783743
_cell_length_c                          13.58783743
_cell_angle_alpha                       90.0
_cell_angle_beta                        90.0
_cell_angle_gamma                       90.0
_chemical_name_systematic               'Generated by pymatgen'
_symmetry_Int_Tables_number             1
_chemical_formula_structural            Na3VS4
_chemical_formula_sum                   'Na24 V8 S32'
_cell_volume                            1478.88582736
_cell_formula_units_Z                   8
loop_
  _symmetry_equiv_pos_site_id
  _symmetry_equiv_pos_as_xyz
   1  'x, y, z'
 
loop_
  _atom_site_type_symbol
  _atom_site_label
  _atom_site_symmetry_multiplicity
  _atom_site_fract_x
  _atom_site_fract_y
  _atom_site_fract_z
  _atom_site_attached_hydrogens
  _atom_site_B_iso_or_equiv
  _atom_site_occupancy
   Na  Na1  1  0.574240  0.000000  0.500000  0  .  1
   Na  Na2  1  0.425760  0.500000  0.000000  0  .  1
   Na  Na3  1  0.925760  0.500000  0.000000  0  .  1
   Na  Na4  1  0.074240  0.000000  0.500000  0  .  1
   Na  Na5  1  0.712307  0.500000  0.500000  0  .  1
   Na  Na6  1  0.287693  0.500000  0.500000  0  .  1
   Na  Na7  1  0.787693  0.000000  0.000000  0  .  1
   Na  Na8  1  0.212307  0.000000  0.000000  0  .  1
   Na  Na9  1  0.853750  0.755696  0.544850  0  .  1
   Na  Na10  1  0.146250  0.544850  0.244304  0  .  1
   Na  Na11  1  0.146250  0.455150  0.755696  0  .  1
   Na  Na12  1  0.853750  0.244304  0.455150  0  .  1
   Na  Na13  1  0.646250  0.255696  0.955150  0  .  1
   Na  Na14  1  0.646250  0.744304  0.044850  0  .  1
   Na  Na15  1  0.353750  0.955150  0.744304  0  .  1
   Na  Na16  1  0.353750  0.044850  0.255696  0  .  1
   Na  Na17  1  0.936288  0.753530  0.799911  0  .  1
   Na  Na18  1  0.063712  0.799911  0.246470  0  .  1
   Na  Na19  1  0.063712  0.200089  0.753530  0  .  1
   Na  Na20  1  0.936288  0.246470  0.200089  0  .  1
   Na  Na21  1  0.563712  0.253530  0.700089  0  .  1
   Na  Na22  1  0.563712  0.746470  0.299911  0  .  1
   Na  Na23  1  0.436288  0.700089  0.746470  0  .  1
   Na  Na24  1  0.436288  0.299911  0.253530  0  .  1
   S  S25  1  0.681554  0.607809  0.886770  0  .  1
   S  S26  1  0.395848  0.161747  0.079521  0  .  1
   S  S27  1  0.395848  0.838253  0.920479  0  .  1
   S  S28  1  0.604152  0.920479  0.161747  0  .  1
   S  S29  1  0.604152  0.079521  0.838253  0  .  1
   S  S30  1  0.895848  0.420479  0.338253  0  .  1
   S  S31  1  0.104152  0.338253  0.579521  0  .  1
   S  S32  1  0.104152  0.661747  0.420479  0  .  1
   S  S33  1  0.512903  0.686568  0.508781  0  .  1
   S  S34  1  0.487097  0.508781  0.313432  0  .  1
   S  S35  1  0.487097  0.491219  0.686568  0  .  1
   S  S36  1  0.512903  0.313432  0.491219  0  .  1
   S  S37  1  0.987097  0.186568  0.991219  0  .  1
   S  S38  1  0.987097  0.813432  0.008781  0  .  1
   S  S39  1  0.012903  0.991219  0.813432  0  .  1
   S  S40  1  0.012903  0.008781  0.186568  0  .  1
   S  S41  1  0.678287  0.870904  0.690080  0  .  1
   S  S42  1  0.321713  0.690080  0.129096  0  .  1
   S  S43  1  0.321713  0.309920  0.870904  0  .  1
   S  S44  1  0.678287  0.129096  0.309920  0  .  1
   S  S45  1  0.181554  0.386770  0.107809  0  .  1
   S  S46  1  0.821713  0.629096  0.190080  0  .  1
   S  S47  1  0.178287  0.809920  0.629096  0  .  1
   S  S48  1  0.178287  0.190080  0.370904  0  .  1
   S  S49  1  0.895848  0.579521  0.661747  0  .  1
   S  S50  1  0.318446  0.886770  0.392191  0  .  1
   S  S51  1  0.318446  0.113230  0.607809  0  .  1
   S  S52  1  0.681554  0.392191  0.113230  0  .  1
   S  S53  1  0.818446  0.107809  0.613230  0  .  1
   S  S54  1  0.818446  0.892191  0.386770  0  .  1
   S  S55  1  0.181554  0.613230  0.892191  0  .  1
   S  S56  1  0.821713  0.370904  0.809920  0  .  1
   V  V57  1  0.779550  0.011161  0.738445  0  .  1
   V  V58  1  0.279550  0.238445  0.511161  0  .  1
   V  V59  1  0.279550  0.761555  0.488839  0  .  1
   V  V60  1  0.720450  0.488839  0.238445  0  .  1
   V  V61  1  0.720450  0.511161  0.761555  0  .  1
   V  V62  1  0.779550  0.988839  0.261555  0  .  1
   V  V63  1  0.220450  0.261555  0.011161  0  .  1
   V  V64  1  0.220450  0.738445  0.988839  0  .  1
 
