#\#CIF1.1
##########################################################################
#               Crystallographic Information Format file 
#               Produced by PyCifRW module
# 
#  This is a CIF file.  CIF has been adopted by the International
#  Union of Crystallography as the standard for data archiving and 
#  transmission.
#
#  For information on this file format, follow the CIF links at
#  http://www.iucr.org
##########################################################################

data_Na3VO3
_symmetry_space_group_name_H-M          'P 1'
_cell_length_a                          5.89107622776
_cell_length_b                          6.03074991367
_cell_length_c                          6.50249268386
_cell_angle_alpha                       64.336182216
_cell_angle_beta                        89.0421343002
_cell_angle_gamma                       87.885280193
_chemical_name_systematic               'Generated by pymatgen'
_symmetry_Int_Tables_number             1
_chemical_formula_structural            Na3VO3
_chemical_formula_sum                   'Na6 V2 O6'
_cell_volume                            208.086358085
_cell_formula_units_Z                   2
loop_
  _symmetry_equiv_pos_site_id
  _symmetry_equiv_pos_as_xyz
   1  'x, y, z'
 
loop_
  _atom_site_type_symbol
  _atom_site_label
  _atom_site_symmetry_multiplicity
  _atom_site_fract_x
  _atom_site_fract_y
  _atom_site_fract_z
  _atom_site_attached_hydrogens
  _atom_site_B_iso_or_equiv
  _atom_site_occupancy
   Na  Na1  1  0.065524  0.761772  0.447805  0  .  1
   Na  Na2  1  0.139060  0.775037  0.982616  0  .  1
   Na  Na3  1  0.428739  0.268693  0.746581  0  .  1
   Na  Na4  1  0.571261  0.731307  0.253419  0  .  1
   Na  Na5  1  0.860940  0.224963  0.017384  0  .  1
   Na  Na6  1  0.934476  0.238228  0.552195  0  .  1
   V  V7  1  0.370751  0.191500  0.306001  0  .  1
   V  V8  1  0.629249  0.808500  0.693999  0  .  1
   O  O9  1  0.236841  0.105493  0.094901  0  .  1
   O  O10  1  0.252818  0.473724  0.339636  0  .  1
   O  O11  1  0.311363  0.931696  0.627302  0  .  1
   O  O12  1  0.688637  0.068305  0.372698  0  .  1
   O  O13  1  0.747182  0.526276  0.660364  0  .  1
   O  O14  1  0.763159  0.894507  0.905099  0  .  1
 
