#\#CIF1.1
##########################################################################
#               Crystallographic Information Format file 
#               Produced by PyCifRW module
# 
#  This is a CIF file.  CIF has been adopted by the International
#  Union of Crystallography as the standard for data archiving and 
#  transmission.
#
#  For information on this file format, follow the CIF links at
#  http://www.iucr.org
##########################################################################

data_Na3V5O10
_symmetry_space_group_name_H-M          'P 1'
_cell_length_a                          5.09543908259
_cell_length_b                          6.59713473129
_cell_length_c                          7.24786908086
_cell_angle_alpha                       108.800900344
_cell_angle_beta                        97.2984597741
_cell_angle_gamma                       104.428143977
_chemical_name_systematic               'Generated by pymatgen'
_symmetry_Int_Tables_number             1
_chemical_formula_structural            Na3V5O10
_chemical_formula_sum                   'Na3 V5 O10'
_cell_volume                            217.578262951
_cell_formula_units_Z                   1
loop_
  _symmetry_equiv_pos_site_id
  _symmetry_equiv_pos_as_xyz
   1  'x, y, z'
 
loop_
  _atom_site_type_symbol
  _atom_site_label
  _atom_site_symmetry_multiplicity
  _atom_site_fract_x
  _atom_site_fract_y
  _atom_site_fract_z
  _atom_site_attached_hydrogens
  _atom_site_B_iso_or_equiv
  _atom_site_occupancy
   Na  Na1  1  0.796438  0.095523  0.597660  0  .  1
   Na  Na2  1  0.600000  0.700000  0.200000  0  .  1
   Na  Na3  1  0.403562  0.304477  0.802340  0  .  1
   V  V4  1  0.813257  0.600950  0.605158  0  .  1
   V  V5  1  0.600000  0.200000  0.200000  0  .  1
   V  V6  1  0.386743  0.799050  0.794843  0  .  1
   V  V7  1  0.200675  0.404466  0.395174  0  .  1
   V  V8  1  0.999325  0.995534  0.004826  0  .  1
   O  O9  1  0.889913  0.088472  0.277913  0  .  1
   O  O10  1  0.685128  0.109572  0.923442  0  .  1
   O  O11  1  0.697907  0.687561  0.873805  0  .  1
   O  O12  1  0.880435  0.509507  0.327128  0  .  1
   O  O13  1  0.514872  0.290428  0.476558  0  .  1
   O  O14  1  0.502093  0.712439  0.526195  0  .  1
   O  O15  1  0.319565  0.890493  0.072872  0  .  1
   O  O16  1  0.103990  0.478314  0.672721  0  .  1
   O  O17  1  0.310087  0.311528  0.122087  0  .  1
   O  O18  1  0.096010  0.921686  0.727279  0  .  1
 
