#\#CIF1.1
##########################################################################
#               Crystallographic Information Format file 
#               Produced by PyCifRW module
# 
#  This is a CIF file.  CIF has been adopted by the International
#  Union of Crystallography as the standard for data archiving and 
#  transmission.
#
#  For information on this file format, follow the CIF links at
#  http://www.iucr.org
##########################################################################

data_Na4(CoO2)7
_symmetry_space_group_name_H-M          'P 1'
_cell_length_a                          7.50246685
_cell_length_b                          7.50246684843
_cell_length_c                          11.13554949
_cell_angle_alpha                       90.0
_cell_angle_beta                        90.0
_cell_angle_gamma                       120.000000027
_chemical_name_systematic               'Generated by pymatgen'
_symmetry_Int_Tables_number             1
_chemical_formula_structural            Na4(CoO2)7
_chemical_formula_sum                   'Na8 Co14 O28'
_cell_volume                            542.813267504
_cell_formula_units_Z                   2
loop_
  _symmetry_equiv_pos_site_id
  _symmetry_equiv_pos_as_xyz
   1  'x, y, z'
 
loop_
  _atom_site_type_symbol
  _atom_site_label
  _atom_site_symmetry_multiplicity
  _atom_site_fract_x
  _atom_site_fract_y
  _atom_site_fract_z
  _atom_site_attached_hydrogens
  _atom_site_B_iso_or_equiv
  _atom_site_occupancy
   O  O1  1  0.333333  0.666667  0.593899  0  .  1
   O  O2  1  0.666667  0.333333  0.093899  0  .  1
   O  O3  1  0.666667  0.333333  0.406101  0  .  1
   O  O4  1  0.333333  0.666667  0.906101  0  .  1
   O  O5  1  0.096258  0.476904  0.415952  0  .  1
   O  O6  1  0.619355  0.096258  0.915952  0  .  1
   O  O7  1  0.476904  0.380645  0.915952  0  .  1
   O  O8  1  0.523096  0.619355  0.415952  0  .  1
   O  O9  1  0.380645  0.903742  0.415952  0  .  1
   O  O10  1  0.903742  0.523096  0.915952  0  .  1
   O  O11  1  0.903742  0.523096  0.584048  0  .  1
   O  O12  1  0.380645  0.903742  0.084048  0  .  1
   O  O13  1  0.523096  0.619355  0.084048  0  .  1
   O  O14  1  0.476904  0.380645  0.584048  0  .  1
   O  O15  1  0.619355  0.096258  0.584048  0  .  1
   O  O16  1  0.096258  0.476904  0.084048  0  .  1
   O  O17  1  0.238373  0.192838  0.411082  0  .  1
   O  O18  1  0.045535  0.238373  0.911082  0  .  1
   O  O19  1  0.192838  0.954465  0.911082  0  .  1
   O  O20  1  0.807162  0.045535  0.411082  0  .  1
   O  O21  1  0.954465  0.761627  0.411082  0  .  1
   O  O22  1  0.761627  0.807162  0.911082  0  .  1
   O  O23  1  0.238373  0.192838  0.088918  0  .  1
   O  O24  1  0.045535  0.238373  0.588918  0  .  1
   O  O25  1  0.192838  0.954465  0.588918  0  .  1
   O  O26  1  0.807162  0.045535  0.088918  0  .  1
   O  O27  1  0.954465  0.761627  0.088918  0  .  1
   O  O28  1  0.761627  0.807162  0.588918  0  .  1
   Na  Na29  1  0.000000  0.000000  0.250000  0  .  1
   Na  Na30  1  0.000000  0.000000  0.750000  0  .  1
   Na  Na31  1  0.452468  0.410075  0.250000  0  .  1
   Na  Na32  1  0.042393  0.452468  0.750000  0  .  1
   Na  Na33  1  0.410075  0.957607  0.750000  0  .  1
   Na  Na34  1  0.589925  0.042393  0.250000  0  .  1
   Na  Na35  1  0.957607  0.547532  0.250000  0  .  1
   Na  Na36  1  0.547532  0.589925  0.750000  0  .  1
   Co  Co37  1  0.571553  0.856556  0.998377  0  .  1
   Co  Co38  1  0.428447  0.143444  0.498377  0  .  1
   Co  Co39  1  0.856556  0.285003  0.498377  0  .  1
   Co  Co40  1  0.285003  0.428447  0.998377  0  .  1
   Co  Co41  1  0.000000  0.000000  0.500000  0  .  1
   Co  Co42  1  0.000000  0.000000  0.000000  0  .  1
   Co  Co43  1  0.143444  0.714997  0.998377  0  .  1
   Co  Co44  1  0.714997  0.571553  0.498377  0  .  1
   Co  Co45  1  0.714997  0.571553  0.001623  0  .  1
   Co  Co46  1  0.143444  0.714997  0.501623  0  .  1
   Co  Co47  1  0.571553  0.856556  0.501623  0  .  1
   Co  Co48  1  0.428447  0.143444  0.001623  0  .  1
   Co  Co49  1  0.856556  0.285003  0.001623  0  .  1
   Co  Co50  1  0.285003  0.428447  0.501623  0  .  1
 
