#\#CIF1.1
##########################################################################
#               Crystallographic Information Format file 
#               Produced by PyCifRW module
# 
#  This is a CIF file.  CIF has been adopted by the International
#  Union of Crystallography as the standard for data archiving and 
#  transmission.
#
#  For information on this file format, follow the CIF links at
#  http://www.iucr.org
##########################################################################

data_Na4(NiO2)5
_symmetry_space_group_name_H-M          'P 1'
_cell_length_a                          5.15731642691
_cell_length_b                          6.34548902258
_cell_length_c                          6.92602617396
_cell_angle_alpha                       110.132884095
_cell_angle_beta                        96.2848200301
_cell_angle_gamma                       105.929465207
_chemical_name_systematic               'Generated by pymatgen'
_symmetry_Int_Tables_number             1
_chemical_formula_structural            Na4(NiO2)5
_chemical_formula_sum                   'Na4 Ni5 O10'
_cell_volume                            199.34861619
_cell_formula_units_Z                   1
loop_
  _symmetry_equiv_pos_site_id
  _symmetry_equiv_pos_as_xyz
   1  'x, y, z'
 
loop_
  _atom_site_type_symbol
  _atom_site_label
  _atom_site_symmetry_multiplicity
  _atom_site_fract_x
  _atom_site_fract_y
  _atom_site_fract_z
  _atom_site_attached_hydrogens
  _atom_site_B_iso_or_equiv
  _atom_site_occupancy
   Na  Na1  1  0.812921  0.621282  0.623344  0  .  1
   Na  Na2  1  0.599538  0.191771  0.188943  0  .  1
   Na  Na3  1  0.400462  0.808229  0.811057  0  .  1
   Na  Na4  1  0.187079  0.378718  0.376656  0  .  1
   Ni  Ni5  1  0.796207  0.098039  0.598069  0  .  1
   Ni  Ni6  1  0.398832  0.301348  0.795580  0  .  1
   Ni  Ni7  1  0.601168  0.698652  0.204420  0  .  1
   Ni  Ni8  1  0.203793  0.901961  0.401931  0  .  1
   Ni  Ni9  1  0.000000  0.500000  0.000000  0  .  1
   O  O10  1  0.869890  0.008705  0.325658  0  .  1
   O  O11  1  0.667486  0.613385  0.926738  0  .  1
   O  O12  1  0.895396  0.592158  0.286979  0  .  1
   O  O13  1  0.685397  0.181961  0.858966  0  .  1
   O  O14  1  0.482067  0.224074  0.524928  0  .  1
   O  O15  1  0.517933  0.775926  0.475072  0  .  1
   O  O16  1  0.314603  0.818039  0.141034  0  .  1
   O  O17  1  0.104604  0.407842  0.713021  0  .  1
   O  O18  1  0.332514  0.386615  0.073262  0  .  1
   O  O19  1  0.130110  0.991295  0.674342  0  .  1
 
