#\#CIF1.1
##########################################################################
#               Crystallographic Information Format file 
#               Produced by PyCifRW module
# 
#  This is a CIF file.  CIF has been adopted by the International
#  Union of Crystallography as the standard for data archiving and 
#  transmission.
#
#  For information on this file format, follow the CIF links at
#  http://www.iucr.org
##########################################################################

data_Na4CrO3
_symmetry_space_group_name_H-M          'P 1'
_cell_length_a                          5.84294911
_cell_length_b                          6.40087441941
_cell_length_c                          8.28761205596
_cell_angle_alpha                       69.282351725
_cell_angle_beta                        90.0
_cell_angle_gamma                       62.8437843429
_chemical_name_systematic               'Generated by pymatgen'
_symmetry_Int_Tables_number             1
_chemical_formula_structural            Na4CrO3
_chemical_formula_sum                   'Na8 Cr2 O6'
_cell_volume                            253.053334776
_cell_formula_units_Z                   2
loop_
  _symmetry_equiv_pos_site_id
  _symmetry_equiv_pos_as_xyz
   1  'x, y, z'
 
loop_
  _atom_site_type_symbol
  _atom_site_label
  _atom_site_symmetry_multiplicity
  _atom_site_fract_x
  _atom_site_fract_y
  _atom_site_fract_z
  _atom_site_attached_hydrogens
  _atom_site_B_iso_or_equiv
  _atom_site_occupancy
   Na  Na1  1  0.962687  0.774242  0.940799  0  .  1
   Na  Na2  1  0.263071  0.774242  0.440799  0  .  1
   Na  Na3  1  0.873317  0.571081  0.636581  0  .  1
   Na  Na4  1  0.507599  0.394697  0.845802  0  .  1
   Na  Na5  1  0.555604  0.571081  0.136581  0  .  1
   Na  Na6  1  0.097703  0.394697  0.345802  0  .  1
   Na  Na7  1  0.727818  0.240610  0.531832  0  .  1
   Na  Na8  1  0.031572  0.240610  0.031832  0  .  1
   Cr  Cr9  1  0.345744  0.032020  0.749332  0  .  1
   Cr  Cr10  1  0.622237  0.032020  0.249332  0  .  1
   O  O11  1  0.646514  0.693046  0.847677  0  .  1
   O  O12  1  0.660438  0.693046  0.347677  0  .  1
   O  O13  1  0.309810  0.373789  0.606372  0  .  1
   O  O14  1  0.986493  0.135395  0.793973  0  .  1
   O  O15  1  0.316401  0.373789  0.106372  0  .  1
   O  O16  1  0.878113  0.135395  0.293973  0  .  1
 
