#\#CIF1.1
##########################################################################
#               Crystallographic Information Format file 
#               Produced by PyCifRW module
# 
#  This is a CIF file.  CIF has been adopted by the International
#  Union of Crystallography as the standard for data archiving and 
#  transmission.
#
#  For information on this file format, follow the CIF links at
#  http://www.iucr.org
##########################################################################

data_Na4CoO3
_symmetry_space_group_name_H-M          'P 1'
_cell_length_a                          5.78936791
_cell_length_b                          6.26976093006
_cell_length_c                          8.21591975884
_cell_angle_alpha                       111.024635411
_cell_angle_beta                        90.0
_cell_angle_gamma                       117.496193757
_chemical_name_systematic               'Generated by pymatgen'
_symmetry_Int_Tables_number             1
_chemical_formula_structural            Na4CoO3
_chemical_formula_sum                   'Na8 Co2 O6'
_cell_volume                            241.931958387
_cell_formula_units_Z                   2
loop_
  _symmetry_equiv_pos_site_id
  _symmetry_equiv_pos_as_xyz
   1  'x, y, z'
 
loop_
  _atom_site_type_symbol
  _atom_site_label
  _atom_site_symmetry_multiplicity
  _atom_site_fract_x
  _atom_site_fract_y
  _atom_site_fract_z
  _atom_site_attached_hydrogens
  _atom_site_B_iso_or_equiv
  _atom_site_occupancy
   O  O1  1  0.258124  0.616988  0.231404  0  .  1
   O  O2  1  0.358864  0.616988  0.731404  0  .  1
   O  O3  1  0.695175  0.379230  0.045644  0  .  1
   O  O4  1  0.684055  0.379230  0.545644  0  .  1
   O  O5  1  0.027774  0.033064  0.269749  0  .  1
   O  O6  1  0.005290  0.033064  0.769749  0  .  1
   Na  Na7  1  0.439527  0.537731  0.976371  0  .  1
   Na  Na8  1  0.474630  0.368959  0.286977  0  .  1
   Na  Na9  1  0.929507  0.169930  0.065671  0  .  1
   Na  Na10  1  0.240423  0.169930  0.565671  0  .  1
   Na  Na11  1  0.647858  0.977492  0.382577  0  .  1
   Na  Na12  1  0.329634  0.977492  0.882577  0  .  1
   Na  Na13  1  0.894329  0.368959  0.786977  0  .  1
   Na  Na14  1  0.098204  0.537731  0.476371  0  .  1
   Co  Co15  1  0.005793  0.710886  0.186507  0  .  1
   Co  Co16  1  0.705093  0.710886  0.686507  0  .  1
 
