#\#CIF1.1
##########################################################################
#               Crystallographic Information Format file 
#               Produced by PyCifRW module
# 
#  This is a CIF file.  CIF has been adopted by the International
#  Union of Crystallography as the standard for data archiving and 
#  transmission.
#
#  For information on this file format, follow the CIF links at
#  http://www.iucr.org
##########################################################################

data_Na4Co2O5
_symmetry_space_group_name_H-M          'P 1'
_cell_length_a                          11.827183827
_cell_length_b                          5.7481842
_cell_length_c                          9.09549057732
_cell_angle_alpha                       90.0
_cell_angle_beta                        106.67657505
_cell_angle_gamma                       90.0
_chemical_name_systematic               'Generated by pymatgen'
_symmetry_Int_Tables_number             1
_chemical_formula_structural            Na4Co2O5
_chemical_formula_sum                   'Na16 Co8 O20'
_cell_volume                            592.347302008
_cell_formula_units_Z                   4
loop_
  _symmetry_equiv_pos_site_id
  _symmetry_equiv_pos_as_xyz
   1  'x, y, z'
 
loop_
  _atom_site_type_symbol
  _atom_site_label
  _atom_site_symmetry_multiplicity
  _atom_site_fract_x
  _atom_site_fract_y
  _atom_site_fract_z
  _atom_site_attached_hydrogens
  _atom_site_B_iso_or_equiv
  _atom_site_occupancy
   Na  Na1  1  0.037886  0.071099  0.838791  0  .  1
   Na  Na2  1  0.040457  0.413737  0.335158  0  .  1
   Na  Na3  1  0.130788  0.880239  0.521623  0  .  1
   Na  Na4  1  0.140117  0.627814  0.015042  0  .  1
   Na  Na5  1  0.369212  0.380239  0.978377  0  .  1
   Na  Na6  1  0.359883  0.127814  0.484958  0  .  1
   Na  Na7  1  0.462114  0.571099  0.661209  0  .  1
   Na  Na8  1  0.540457  0.086263  0.835158  0  .  1
   Na  Na9  1  0.459543  0.913737  0.164842  0  .  1
   Na  Na10  1  0.537886  0.428901  0.338791  0  .  1
   Na  Na11  1  0.640117  0.872186  0.515042  0  .  1
   Na  Na12  1  0.630788  0.619761  0.021623  0  .  1
   Na  Na13  1  0.859883  0.372186  0.984958  0  .  1
   Na  Na14  1  0.869212  0.119761  0.478377  0  .  1
   Na  Na15  1  0.959543  0.586263  0.664842  0  .  1
   Na  Na16  1  0.962114  0.928901  0.161209  0  .  1
   Co  Co17  1  0.193618  0.387365  0.657537  0  .  1
   Co  Co18  1  0.306382  0.887365  0.842463  0  .  1
   Co  Co19  1  0.201316  0.160126  0.154028  0  .  1
   Co  Co20  1  0.298684  0.660126  0.345972  0  .  1
   Co  Co21  1  0.701316  0.339874  0.654028  0  .  1
   Co  Co22  1  0.798684  0.839874  0.845972  0  .  1
   Co  Co23  1  0.693618  0.112635  0.157537  0  .  1
   Co  Co24  1  0.806382  0.612635  0.342463  0  .  1
   O  O25  1  0.057096  0.231521  0.605305  0  .  1
   O  O26  1  0.180381  0.655458  0.767190  0  .  1
   O  O27  1  0.051911  0.261100  0.090230  0  .  1
   O  O28  1  0.193683  0.913937  0.299966  0  .  1
   O  O29  1  0.242807  0.489492  0.488007  0  .  1
   O  O30  1  0.319619  0.155458  0.732810  0  .  1
   O  O31  1  0.257193  0.989492  0.011993  0  .  1
   O  O32  1  0.306317  0.413937  0.200034  0  .  1
   O  O33  1  0.442904  0.731521  0.894695  0  .  1
   O  O34  1  0.448089  0.761100  0.409770  0  .  1
   O  O35  1  0.551911  0.238900  0.590230  0  .  1
   O  O36  1  0.557096  0.268479  0.105305  0  .  1
   O  O37  1  0.693683  0.586063  0.799966  0  .  1
   O  O38  1  0.742807  0.010508  0.988007  0  .  1
   O  O39  1  0.680381  0.844542  0.267190  0  .  1
   O  O40  1  0.757193  0.510508  0.511993  0  .  1
   O  O41  1  0.806317  0.086063  0.700034  0  .  1
   O  O42  1  0.948089  0.738900  0.909770  0  .  1
   O  O43  1  0.819619  0.344542  0.232810  0  .  1
   O  O44  1  0.942904  0.768479  0.394695  0  .  1
 
