#\#CIF1.1
##########################################################################
#               Crystallographic Information Format file 
#               Produced by PyCifRW module
# 
#  This is a CIF file.  CIF has been adopted by the International
#  Union of Crystallography as the standard for data archiving and 
#  transmission.
#
#  For information on this file format, follow the CIF links at
#  http://www.iucr.org
##########################################################################

data_Na4Fe6O13
_symmetry_space_group_name_H-M          'P 1'
_cell_length_a                          5.27150433964
_cell_length_b                          11.1499784249
_cell_length_c                          10.8489408624
_cell_angle_alpha                       60.8639344175
_cell_angle_beta                        89.9332707176
_cell_angle_gamma                       76.2787983919
_chemical_name_systematic               'Generated by pymatgen'
_symmetry_Int_Tables_number             1
_chemical_formula_structural            Na4Fe6O13
_chemical_formula_sum                   'Na8 Fe12 O26'
_cell_volume                            536.154014591
_cell_formula_units_Z                   2
loop_
  _symmetry_equiv_pos_site_id
  _symmetry_equiv_pos_as_xyz
   1  'x, y, z'
 
loop_
  _atom_site_type_symbol
  _atom_site_label
  _atom_site_symmetry_multiplicity
  _atom_site_fract_x
  _atom_site_fract_y
  _atom_site_fract_z
  _atom_site_attached_hydrogens
  _atom_site_B_iso_or_equiv
  _atom_site_occupancy
   Na  Na1  1  0.168443  0.687398  0.014084  0  .  1
   Na  Na2  1  0.333788  0.333783  0.210638  0  .  1
   Na  Na3  1  0.833232  0.334051  0.456253  0  .  1
   Na  Na4  1  0.667756  0.688189  0.296043  0  .  1
   Na  Na5  1  0.355056  0.312571  0.702023  0  .  1
   Na  Na6  1  0.163779  0.666646  0.543789  0  .  1
   Na  Na7  1  0.666864  0.666227  0.790470  0  .  1
   Na  Na8  1  0.859962  0.311678  0.985231  0  .  1
   Fe  Fe9  1  0.542903  0.078451  0.090700  0  .  1
   Fe  Fe10  1  0.743064  0.516836  0.117511  0  .  1
   Fe  Fe11  1  0.947060  0.105759  0.346095  0  .  1
   Fe  Fe12  1  0.446932  0.105382  0.549270  0  .  1
   Fe  Fe13  1  0.242656  0.517540  0.365845  0  .  1
   Fe  Fe14  1  0.121039  0.922022  0.168756  0  .  1
   Fe  Fe15  1  0.041923  0.078117  0.832206  0  .  1
   Fe  Fe16  1  0.759540  0.483130  0.634416  0  .  1
   Fe  Fe17  1  0.552564  0.894430  0.451525  0  .  1
   Fe  Fe18  1  0.052591  0.894556  0.654868  0  .  1
   Fe  Fe19  1  0.260606  0.482516  0.883454  0  .  1
   Fe  Fe20  1  0.620262  0.921775  0.910543  0  .  1
   O  O21  1  0.314685  0.001606  0.999922  0  .  1
   O  O22  1  0.816000  0.998623  0.001571  0  .  1
   O  O23  1  0.362065  0.266097  0.007880  0  .  1
   O  O24  1  0.874705  0.075087  0.188427  0  .  1
   O  O25  1  0.506459  0.499797  0.997972  0  .  1
   O  O26  1  0.842755  0.296233  0.244008  0  .  1
   O  O27  1  0.344150  0.095006  0.376689  0  .  1
   O  O28  1  0.482822  0.526705  0.234872  0  .  1
   O  O29  1  0.983683  0.525899  0.239247  0  .  1
   O  O30  1  0.844759  0.095126  0.529424  0  .  1
   O  O31  1  0.344037  0.295749  0.461150  0  .  1
   O  O32  1  0.129831  0.734083  0.273071  0  .  1
   O  O33  1  0.449659  0.925301  0.263190  0  .  1
   O  O34  1  0.005023  0.499971  0.502217  0  .  1
   O  O35  1  0.505352  0.500013  0.498075  0  .  1
   O  O36  1  0.373928  0.074315  0.737555  0  .  1
   O  O37  1  0.862112  0.266000  0.729136  0  .  1
   O  O38  1  0.640131  0.704009  0.539728  0  .  1
   O  O39  1  0.938869  0.905290  0.471778  0  .  1
   O  O40  1  0.510442  0.473570  0.761985  0  .  1
   O  O41  1  0.010960  0.474004  0.764765  0  .  1
   O  O42  1  0.439801  0.904849  0.624242  0  .  1
   O  O43  1  0.140019  0.704138  0.757141  0  .  1
   O  O44  1  0.005866  0.500148  0.002517  0  .  1
   O  O45  1  0.948760  0.925218  0.812370  0  .  1
   O  O46  1  0.628630  0.733919  0.994689  0  .  1
 
