#\#CIF1.1
##########################################################################
#               Crystallographic Information Format file 
#               Produced by PyCifRW module
# 
#  This is a CIF file.  CIF has been adopted by the International
#  Union of Crystallography as the standard for data archiving and 
#  transmission.
#
#  For information on this file format, follow the CIF links at
#  http://www.iucr.org
##########################################################################

data_Na4FeO4
_symmetry_space_group_name_H-M          'P 1'
_cell_length_a                          5.82906254639
_cell_length_b                          5.82861782435
_cell_length_c                          8.37229889276
_cell_angle_alpha                       71.8209047387
_cell_angle_beta                        87.833413089
_cell_angle_gamma                       69.2193100182
_chemical_name_systematic               'Generated by pymatgen'
_symmetry_Int_Tables_number             1
_chemical_formula_structural            Na4FeO4
_chemical_formula_sum                   'Na8 Fe2 O8'
_cell_volume                            251.820562647
_cell_formula_units_Z                   2
loop_
  _symmetry_equiv_pos_site_id
  _symmetry_equiv_pos_as_xyz
   1  'x, y, z'
 
loop_
  _atom_site_type_symbol
  _atom_site_label
  _atom_site_symmetry_multiplicity
  _atom_site_fract_x
  _atom_site_fract_y
  _atom_site_fract_z
  _atom_site_attached_hydrogens
  _atom_site_B_iso_or_equiv
  _atom_site_occupancy
   O  O1  1  0.892470  0.761992  0.101608  0  .  1
   O  O2  1  0.107530  0.238008  0.898392  0  .  1
   O  O3  1  0.971786  0.312809  0.383279  0  .  1
   O  O4  1  0.028214  0.687191  0.616721  0  .  1
   O  O5  1  0.474585  0.563417  0.801453  0  .  1
   O  O6  1  0.525415  0.436583  0.198547  0  .  1
   O  O7  1  0.501507  0.828617  0.337695  0  .  1
   O  O8  1  0.498493  0.171383  0.662305  0  .  1
   Na  Na9  1  0.216172  0.586015  0.371473  0  .  1
   Na  Na10  1  0.783828  0.413985  0.628527  0  .  1
   Na  Na11  1  0.743738  0.208168  0.018972  0  .  1
   Na  Na12  1  0.256262  0.791832  0.981028  0  .  1
   Na  Na13  1  0.724449  0.049446  0.432324  0  .  1
   Na  Na14  1  0.275551  0.950554  0.567676  0  .  1
   Na  Na15  1  0.236972  0.240433  0.169322  0  .  1
   Na  Na16  1  0.763028  0.759567  0.830678  0  .  1
   Fe  Fe17  1  0.279742  0.405996  0.749910  0  .  1
   Fe  Fe18  1  0.720258  0.594004  0.250090  0  .  1
 
