#\#CIF1.1
##########################################################################
#               Crystallographic Information Format file 
#               Produced by PyCifRW module
# 
#  This is a CIF file.  CIF has been adopted by the International
#  Union of Crystallography as the standard for data archiving and 
#  transmission.
#
#  For information on this file format, follow the CIF links at
#  http://www.iucr.org
##########################################################################

data_Na4FeO5
_symmetry_space_group_name_H-M          'P 1'
_cell_length_a                          4.57159194
_cell_length_b                          5.72460210878
_cell_length_c                          5.72460210878
_cell_angle_alpha                       99.1741125733
_cell_angle_beta                        113.534008588
_cell_angle_gamma                       66.4659914118
_chemical_name_systematic               'Generated by pymatgen'
_symmetry_Int_Tables_number             1
_chemical_formula_structural            Na4FeO5
_chemical_formula_sum                   'Na4 Fe1 O5'
_cell_volume                            125.930024764
_cell_formula_units_Z                   1
loop_
  _symmetry_equiv_pos_site_id
  _symmetry_equiv_pos_as_xyz
   1  'x, y, z'
 
loop_
  _atom_site_type_symbol
  _atom_site_label
  _atom_site_symmetry_multiplicity
  _atom_site_fract_x
  _atom_site_fract_y
  _atom_site_fract_z
  _atom_site_attached_hydrogens
  _atom_site_B_iso_or_equiv
  _atom_site_occupancy
   Na  Na1  1  0.599853  0.193191  0.392897  0  .  1
   Na  Na2  1  0.793044  0.607103  0.193191  0  .  1
   Na  Na3  1  0.206956  0.392897  0.806809  0  .  1
   Na  Na4  1  0.400147  0.806809  0.607103  0  .  1
   Fe  Fe5  1  0.000000  0.000000  0.000000  0  .  1
   O  O6  1  0.500000  0.000000  0.000000  0  .  1
   O  O7  1  0.068369  0.171691  0.308430  0  .  1
   O  O8  1  0.240060  0.691570  0.171691  0  .  1
   O  O9  1  0.759940  0.308430  0.828309  0  .  1
   O  O10  1  0.931631  0.828309  0.691570  0  .  1
 
