#\#CIF1.1
##########################################################################
#               Crystallographic Information Format file 
#               Produced by PyCifRW module
# 
#  This is a CIF file.  CIF has been adopted by the International
#  Union of Crystallography as the standard for data archiving and 
#  transmission.
#
#  For information on this file format, follow the CIF links at
#  http://www.iucr.org
##########################################################################

data_Na4Ni2O5
_symmetry_space_group_name_H-M          'P 1'
_cell_length_a                          11.7109496086
_cell_length_b                          5.61991553
_cell_length_c                          9.07390783508
_cell_angle_alpha                       90.0
_cell_angle_beta                        105.933872046
_cell_angle_gamma                       90.0
_chemical_name_systematic               'Generated by pymatgen'
_symmetry_Int_Tables_number             1
_chemical_formula_structural            Na4Ni2O5
_chemical_formula_sum                   'Na16 Ni8 O20'
_cell_volume                            574.250413552
_cell_formula_units_Z                   4
loop_
  _symmetry_equiv_pos_site_id
  _symmetry_equiv_pos_as_xyz
   1  'x, y, z'
 
loop_
  _atom_site_type_symbol
  _atom_site_label
  _atom_site_symmetry_multiplicity
  _atom_site_fract_x
  _atom_site_fract_y
  _atom_site_fract_z
  _atom_site_attached_hydrogens
  _atom_site_B_iso_or_equiv
  _atom_site_occupancy
   Na  Na1  1  0.037349  0.072021  0.838144  0  .  1
   Na  Na2  1  0.039926  0.412109  0.337639  0  .  1
   Na  Na3  1  0.130159  0.881399  0.521121  0  .  1
   Na  Na4  1  0.138725  0.626635  0.013852  0  .  1
   Na  Na5  1  0.369841  0.381399  0.978879  0  .  1
   Na  Na6  1  0.361275  0.126635  0.486148  0  .  1
   Na  Na7  1  0.462651  0.572021  0.661856  0  .  1
   Na  Na8  1  0.539926  0.087891  0.837639  0  .  1
   Na  Na9  1  0.460074  0.912109  0.162361  0  .  1
   Na  Na10  1  0.537349  0.427979  0.338144  0  .  1
   Na  Na11  1  0.638725  0.873365  0.513852  0  .  1
   Na  Na12  1  0.630159  0.618601  0.021121  0  .  1
   Na  Na13  1  0.861275  0.373365  0.986148  0  .  1
   Na  Na14  1  0.869841  0.118601  0.478879  0  .  1
   Na  Na15  1  0.960074  0.587891  0.662361  0  .  1
   Na  Na16  1  0.962651  0.927979  0.161856  0  .  1
   Ni  Ni17  1  0.200049  0.383445  0.658091  0  .  1
   Ni  Ni18  1  0.299951  0.883445  0.841909  0  .  1
   Ni  Ni19  1  0.202777  0.156043  0.158517  0  .  1
   Ni  Ni20  1  0.297223  0.656043  0.341483  0  .  1
   Ni  Ni21  1  0.702777  0.343957  0.658517  0  .  1
   Ni  Ni22  1  0.797223  0.843957  0.841483  0  .  1
   Ni  Ni23  1  0.700049  0.116555  0.158091  0  .  1
   Ni  Ni24  1  0.799951  0.616555  0.341909  0  .  1
   O  O25  1  0.056368  0.236292  0.605437  0  .  1
   O  O26  1  0.176823  0.658832  0.765550  0  .  1
   O  O27  1  0.053193  0.265292  0.082665  0  .  1
   O  O28  1  0.192853  0.917762  0.301699  0  .  1
   O  O29  1  0.241435  0.479629  0.483389  0  .  1
   O  O30  1  0.323177  0.158832  0.734450  0  .  1
   O  O31  1  0.258565  0.979629  0.016611  0  .  1
   O  O32  1  0.307147  0.417762  0.198301  0  .  1
   O  O33  1  0.443632  0.736292  0.894563  0  .  1
   O  O34  1  0.446807  0.765292  0.417335  0  .  1
   O  O35  1  0.553193  0.234708  0.582665  0  .  1
   O  O36  1  0.556368  0.263708  0.105437  0  .  1
   O  O37  1  0.692853  0.582238  0.801699  0  .  1
   O  O38  1  0.741435  0.020371  0.983389  0  .  1
   O  O39  1  0.676823  0.841168  0.265550  0  .  1
   O  O40  1  0.758565  0.520371  0.516611  0  .  1
   O  O41  1  0.807147  0.082238  0.698301  0  .  1
   O  O42  1  0.946807  0.734708  0.917335  0  .  1
   O  O43  1  0.823177  0.341168  0.234450  0  .  1
   O  O44  1  0.943632  0.763708  0.394563  0  .  1
 
