#\#CIF1.1
##########################################################################
#               Crystallographic Information Format file 
#               Produced by PyCifRW module
# 
#  This is a CIF file.  CIF has been adopted by the International
#  Union of Crystallography as the standard for data archiving and 
#  transmission.
#
#  For information on this file format, follow the CIF links at
#  http://www.iucr.org
##########################################################################

data_Na4Ti3O8
_symmetry_space_group_name_H-M          'P 1'
_cell_length_a                          6.50018033405
_cell_length_b                          6.1138030055
_cell_length_c                          6.15991527358
_cell_angle_alpha                       59.7501833515
_cell_angle_beta                        118.28297651
_cell_angle_gamma                       90.7883885484
_chemical_name_systematic               'Generated by pymatgen'
_symmetry_Int_Tables_number             1
_chemical_formula_structural            Na4Ti3O8
_chemical_formula_sum                   'Na4 Ti3 O8'
_cell_volume                            177.89446666
_cell_formula_units_Z                   1
loop_
  _symmetry_equiv_pos_site_id
  _symmetry_equiv_pos_as_xyz
   1  'x, y, z'
 
loop_
  _atom_site_type_symbol
  _atom_site_label
  _atom_site_symmetry_multiplicity
  _atom_site_fract_x
  _atom_site_fract_y
  _atom_site_fract_z
  _atom_site_attached_hydrogens
  _atom_site_B_iso_or_equiv
  _atom_site_occupancy
   Na  Na1  1  0.125000  0.625000  0.750000  0  .  1
   Na  Na2  1  0.125000  0.125000  0.250000  0  .  1
   Na  Na3  1  0.125000  0.125000  0.750000  0  .  1
   Na  Na4  1  0.625000  0.125000  0.750000  0  .  1
   Ti  Ti5  1  0.625000  0.625000  0.750000  0  .  1
   Ti  Ti6  1  0.625000  0.625000  0.250000  0  .  1
   Ti  Ti7  1  0.625000  0.125000  0.250000  0  .  1
   O  O8  1  0.424754  0.857880  0.283437  0  .  1
   O  O9  1  0.431465  0.822077  0.804694  0  .  1
   O  O10  1  0.812439  0.880929  0.244511  0  .  1
   O  O11  1  0.812439  0.880929  0.686999  0  .  1
   O  O12  1  0.437561  0.369070  0.255489  0  .  1
   O  O13  1  0.437561  0.369070  0.813001  0  .  1
   O  O14  1  0.818535  0.427923  0.695306  0  .  1
   O  O15  1  0.825246  0.392120  0.216563  0  .  1
 
