#\#CIF1.1
##########################################################################
#               Crystallographic Information Format file 
#               Produced by PyCifRW module
# 
#  This is a CIF file.  CIF has been adopted by the International
#  Union of Crystallography as the standard for data archiving and 
#  transmission.
#
#  For information on this file format, follow the CIF links at
#  http://www.iucr.org
##########################################################################

data_Na4V2O7
_symmetry_space_group_name_H-M          'P 1'
_cell_length_a                          5.84112822234
_cell_length_b                          8.32643049603
_cell_length_c                          32.9788719144
_cell_angle_alpha                       94.7124663483
_cell_angle_beta                        90.0510254365
_cell_angle_gamma                       110.584469035
_chemical_name_systematic               'Generated by pymatgen'
_symmetry_Int_Tables_number             1
_chemical_formula_structural            Na4V2O7
_chemical_formula_sum                   'Na32 V16 O56'
_cell_volume                            1495.70938367
_cell_formula_units_Z                   8
loop_
  _symmetry_equiv_pos_site_id
  _symmetry_equiv_pos_as_xyz
   1  'x, y, z'
 
loop_
  _atom_site_type_symbol
  _atom_site_label
  _atom_site_symmetry_multiplicity
  _atom_site_fract_x
  _atom_site_fract_y
  _atom_site_fract_z
  _atom_site_attached_hydrogens
  _atom_site_B_iso_or_equiv
  _atom_site_occupancy
   Na  Na1  1  0.811045  0.996223  0.250728  0  .  1
   Na  Na2  1  0.913049  0.477463  0.103981  0  .  1
   Na  Na3  1  0.091224  0.527328  0.895974  0  .  1
   Na  Na4  1  0.678535  0.717208  0.977216  0  .  1
   Na  Na5  1  0.809396  0.014639  0.350006  0  .  1
   Na  Na6  1  0.320844  0.284898  0.022695  0  .  1
   Na  Na7  1  0.036239  0.615801  0.688851  0  .  1
   Na  Na8  1  0.121034  0.794047  0.372148  0  .  1
   Na  Na9  1  0.418649  0.386231  0.811478  0  .  1
   Na  Na10  1  0.564184  0.479234  0.605152  0  .  1
   Na  Na11  1  0.962216  0.285115  0.522565  0  .  1
   Na  Na12  1  0.037757  0.719215  0.477730  0  .  1
   Na  Na13  1  0.297373  0.136184  0.439441  0  .  1
   Na  Na14  1  0.156688  0.860770  0.059945  0  .  1
   Na  Na15  1  0.327886  0.207007  0.128348  0  .  1
   Na  Na16  1  0.877140  0.203557  0.627584  0  .  1
   Na  Na17  1  0.594490  0.760557  0.769099  0  .  1
   Na  Na18  1  0.843196  0.139831  0.939422  0  .  1
   Na  Na19  1  0.800090  0.987130  0.150730  0  .  1
   Na  Na20  1  0.498239  0.499179  0.499735  0  .  1
   Na  Na21  1  0.998615  0.499149  0.000357  0  .  1
   Na  Na22  1  0.411883  0.246174  0.231710  0  .  1
   Na  Na23  1  0.580754  0.615289  0.189069  0  .  1
   Na  Na24  1  0.184487  0.985363  0.649465  0  .  1
   Na  Na25  1  0.828247  0.241893  0.731016  0  .  1
   Na  Na26  1  0.197059  0.014306  0.850166  0  .  1
   Na  Na27  1  0.435869  0.527841  0.395949  0  .  1
   Na  Na28  1  0.967887  0.381023  0.310927  0  .  1
   Na  Na29  1  0.163154  0.751560  0.268684  0  .  1
   Na  Na30  1  0.691126  0.858637  0.560373  0  .  1
   Na  Na31  1  0.674072  0.791803  0.872164  0  .  1
   Na  Na32  1  0.191306  0.003711  0.749425  0  .  1
   V  V33  1  0.653557  0.898333  0.446177  0  .  1
   V  V34  1  0.390808  0.186884  0.323482  0  .  1
   V  V35  1  0.443288  0.391349  0.695895  0  .  1
   V  V36  1  0.793883  0.183975  0.823148  0  .  1
   V  V37  1  0.896750  0.341831  0.429524  0  .  1
   V  V38  1  0.205362  0.814545  0.176757  0  .  1
   V  V39  1  0.247503  0.899545  0.945963  0  .  1
   V  V40  1  0.609835  0.813969  0.676782  0  .  1
   V  V41  1  0.952113  0.394529  0.196012  0  .  1
   V  V42  1  0.558053  0.607829  0.304696  0  .  1
   V  V43  1  0.098609  0.658175  0.570413  0  .  1
   V  V44  1  0.556871  0.658764  0.070614  0  .  1
   V  V45  1  0.347846  0.101434  0.553700  0  .  1
   V  V46  1  0.442910  0.343435  0.929876  0  .  1
   V  V47  1  0.755371  0.102137  0.054077  0  .  1
   V  V48  1  0.048556  0.607665  0.804663  0  .  1
   O  O49  1  0.333535  0.581019  0.562701  0  .  1
   O  O50  1  0.689546  0.868298  0.049352  0  .  1
   O  O51  1  0.779266  0.816575  0.406397  0  .  1
   O  O52  1  0.070510  0.231593  0.190418  0  .  1
   O  O53  1  0.430027  0.911514  0.702148  0  .  1
   O  O54  1  0.838519  0.772638  0.309833  0  .  1
   O  O55  1  0.927269  0.769081  0.810829  0  .  1
   O  O56  1  0.533939  0.438451  0.745666  0  .  1
   O  O57  1  0.333876  0.664468  0.329870  0  .  1
   O  O58  1  0.428479  0.579545  0.670643  0  .  1
   O  O59  1  0.669333  0.336362  0.171388  0  .  1
   O  O60  1  0.014734  0.159037  0.791814  0  .  1
   O  O61  1  0.230940  0.184520  0.594404  0  .  1
   O  O62  1  0.197538  0.902499  0.131843  0  .  1
   O  O63  1  0.663957  0.420603  0.437649  0  .  1
   O  O64  1  0.315277  0.133763  0.951238  0  .  1
   O  O65  1  0.465708  0.557536  0.255053  0  .  1
   O  O66  1  0.958844  0.186791  0.094340  0  .  1
   O  O67  1  0.887897  0.189286  0.010671  0  .  1
   O  O68  1  0.754927  0.423029  0.937993  0  .  1
   O  O69  1  0.245510  0.582703  0.061904  0  .  1
   O  O70  1  0.912900  0.445812  0.245772  0  .  1
   O  O71  1  0.162340  0.227642  0.690317  0  .  1
   O  O72  1  0.641587  0.669961  0.120580  0  .  1
   O  O73  1  0.180558  0.866840  0.548382  0  .  1
   O  O74  1  0.087245  0.559361  0.754799  0  .  1
   O  O75  1  0.298951  0.097392  0.368354  0  .  1
   O  O76  1  0.142699  0.163370  0.292757  0  .  1
   O  O77  1  0.352832  0.329800  0.880091  0  .  1
   O  O78  1  0.331166  0.666235  0.829431  0  .  1
   O  O79  1  0.485083  0.911702  0.201557  0  .  1
   O  O80  1  0.801086  0.093998  0.867750  0  .  1
   O  O81  1  0.667506  0.335087  0.670610  0  .  1
   O  O82  1  0.513776  0.088078  0.798309  0  .  1
   O  O83  1  0.152987  0.580536  0.169930  0  .  1
   O  O84  1  0.970027  0.326248  0.379594  0  .  1
   O  O85  1  0.115110  0.810688  0.989137  0  .  1
   O  O86  1  0.842615  0.528534  0.542521  0  .  1
   O  O87  1  0.571994  0.090907  0.297990  0  .  1
   O  O88  1  0.815525  0.132715  0.451204  0  .  1
   O  O89  1  0.696474  0.810899  0.489594  0  .  1
   O  O90  1  0.860039  0.838770  0.707096  0  .  1
   O  O91  1  0.652231  0.138446  0.563607  0  .  1
   O  O92  1  0.348561  0.855053  0.435162  0  .  1
   O  O93  1  0.313129  0.470320  0.957906  0  .  1
   O  O94  1  0.981995  0.837099  0.207908  0  .  1
   O  O95  1  0.153342  0.468974  0.457601  0  .  1
   O  O96  1  0.023052  0.672768  0.620218  0  .  1
   O  O97  1  0.850313  0.418614  0.830138  0  .  1
   O  O98  1  0.303995  0.191950  0.510752  0  .  1
   O  O99  1  0.685775  0.531039  0.042636  0  .  1
   O  O100  1  0.572698  0.421083  0.330396  0  .  1
   O  O101  1  0.042784  0.815835  0.905888  0  .  1
   O  O102  1  0.699264  0.901697  0.631677  0  .  1
   O  O103  1  0.489571  0.140936  0.064116  0  .  1
   O  O104  1  0.512545  0.860329  0.935381  0  .  1
 
