#\#CIF1.1
##########################################################################
#               Crystallographic Information Format file 
#               Produced by PyCifRW module
# 
#  This is a CIF file.  CIF has been adopted by the International
#  Union of Crystallography as the standard for data archiving and 
#  transmission.
#
#  For information on this file format, follow the CIF links at
#  http://www.iucr.org
##########################################################################

data_Na4VO4
_symmetry_space_group_name_H-M          'P 1'
_cell_length_a                          8.70836582702
_cell_length_b                          5.83210189063
_cell_length_c                          5.80962367212
_cell_angle_alpha                       68.4717160134
_cell_angle_beta                        109.270921123
_cell_angle_gamma                       99.7592357661
_chemical_name_systematic               'Generated by pymatgen'
_symmetry_Int_Tables_number             1
_chemical_formula_structural            Na4VO4
_chemical_formula_sum                   'Na8 V2 O8'
_cell_volume                            258.702150811
_cell_formula_units_Z                   2
loop_
  _symmetry_equiv_pos_site_id
  _symmetry_equiv_pos_as_xyz
   1  'x, y, z'
 
loop_
  _atom_site_type_symbol
  _atom_site_label
  _atom_site_symmetry_multiplicity
  _atom_site_fract_x
  _atom_site_fract_y
  _atom_site_fract_z
  _atom_site_attached_hydrogens
  _atom_site_B_iso_or_equiv
  _atom_site_occupancy
   Na  Na1  1  0.181120  0.011939  0.637637  0  .  1
   Na  Na2  1  0.144411  0.515546  0.107232  0  .  1
   Na  Na3  1  0.313033  0.547019  0.677976  0  .  1
   Na  Na4  1  0.350404  0.039209  0.211212  0  .  1
   Na  Na5  1  0.567370  0.019870  0.758714  0  .  1
   Na  Na6  1  0.730833  0.524851  0.919642  0  .  1
   Na  Na7  1  0.762345  0.028239  0.396848  0  .  1
   Na  Na8  1  0.928374  0.532998  0.561993  0  .  1
   V  V9  1  0.505324  0.559715  0.314445  0  .  1
   V  V10  1  0.989999  0.995149  0.003443  0  .  1
   O  O11  1  0.125487  0.250222  0.860858  0  .  1
   O  O12  1  0.104050  0.797569  0.324012  0  .  1
   O  O13  1  0.391358  0.757595  0.994090  0  .  1
   O  O14  1  0.370579  0.304082  0.457790  0  .  1
   O  O15  1  0.548027  0.753433  0.520387  0  .  1
   O  O16  1  0.673548  0.419158  0.308860  0  .  1
   O  O17  1  0.945907  0.801380  0.797341  0  .  1
   O  O18  1  0.822963  0.138005  0.009565  0  .  1
 
