#\#CIF1.1
##########################################################################
#               Crystallographic Information Format file 
#               Produced by PyCifRW module
# 
#  This is a CIF file.  CIF has been adopted by the International
#  Union of Crystallography as the standard for data archiving and 
#  transmission.
#
#  For information on this file format, follow the CIF links at
#  http://www.iucr.org
##########################################################################

data_Na5(NiO2)8
_symmetry_space_group_name_H-M          'P 1'
_cell_length_a                          5.85425856076
_cell_length_b                          6.86940302529
_cell_length_c                          8.19318159035
_cell_angle_alpha                       81.1336486532
_cell_angle_beta                        102.499783112
_cell_angle_gamma                       101.205683404
_chemical_name_systematic               'Generated by pymatgen'
_symmetry_Int_Tables_number             1
_chemical_formula_structural            Na5(NiO2)8
_chemical_formula_sum                   'Na5 Ni8 O16'
_cell_volume                            313.380378711
_cell_formula_units_Z                   1
loop_
  _symmetry_equiv_pos_site_id
  _symmetry_equiv_pos_as_xyz
   1  'x, y, z'
 
loop_
  _atom_site_type_symbol
  _atom_site_label
  _atom_site_symmetry_multiplicity
  _atom_site_fract_x
  _atom_site_fract_y
  _atom_site_fract_z
  _atom_site_attached_hydrogens
  _atom_site_B_iso_or_equiv
  _atom_site_occupancy
   Na  Na1  1  0.906564  0.357355  0.145216  0  .  1
   Na  Na2  1  0.625000  0.125000  0.375000  0  .  1
   Na  Na3  1  0.343436  0.892645  0.604784  0  .  1
   Na  Na4  1  0.625000  0.625000  0.875000  0  .  1
   Na  Na5  1  0.125000  0.625000  0.875000  0  .  1
   Ni  Ni6  1  0.750043  0.748030  0.249785  0  .  1
   Ni  Ni7  1  0.501834  0.999723  0.999029  0  .  1
   Ni  Ni8  1  0.250965  0.746873  0.246897  0  .  1
   Ni  Ni9  1  0.748166  0.250277  0.750971  0  .  1
   Ni  Ni10  1  0.499957  0.501970  0.500215  0  .  1
   Ni  Ni11  1  0.000769  0.998214  0.998812  0  .  1
   Ni  Ni12  1  0.249231  0.251786  0.751188  0  .  1
   Ni  Ni13  1  0.999035  0.503127  0.503103  0  .  1
   O  O14  1  0.964671  0.723081  0.078387  0  .  1
   O  O15  1  0.780824  0.019704  0.163523  0  .  1
   O  O16  1  0.719217  0.476804  0.336528  0  .  1
   O  O17  1  0.461539  0.728513  0.082530  0  .  1
   O  O18  1  0.943188  0.230236  0.599227  0  .  1
   O  O19  1  0.530783  0.773196  0.413472  0  .  1
   O  O20  1  0.788461  0.521487  0.667470  0  .  1
   O  O21  1  0.306812  0.019764  0.150773  0  .  1
   O  O22  1  0.694773  0.976499  0.843363  0  .  1
   O  O23  1  0.208317  0.479057  0.344424  0  .  1
   O  O24  1  0.469176  0.230296  0.586477  0  .  1
   O  O25  1  0.285329  0.526919  0.671613  0  .  1
   O  O26  1  0.555227  0.273501  0.906637  0  .  1
   O  O27  1  0.041683  0.770943  0.405576  0  .  1
   O  O28  1  0.221364  0.978905  0.833812  0  .  1
   O  O29  1  0.028636  0.271095  0.916188  0  .  1
 
