#\#CIF1.1
##########################################################################
#               Crystallographic Information Format file 
#               Produced by PyCifRW module
# 
#  This is a CIF file.  CIF has been adopted by the International
#  Union of Crystallography as the standard for data archiving and 
#  transmission.
#
#  For information on this file format, follow the CIF links at
#  http://www.iucr.org
##########################################################################

data_Na5Cu7O13
_symmetry_space_group_name_H-M          'P 1'
_cell_length_a                          7.60901791538
_cell_length_b                          6.81287116543
_cell_length_c                          6.86750861216
_cell_angle_alpha                       76.1756896345
_cell_angle_beta                        98.488970817
_cell_angle_gamma                       80.2524853395
_chemical_name_systematic               'Generated by pymatgen'
_symmetry_Int_Tables_number             1
_chemical_formula_structural            Na5Cu7O13
_chemical_formula_sum                   'Na5 Cu7 O13'
_cell_volume                            334.059567252
_cell_formula_units_Z                   1
loop_
  _symmetry_equiv_pos_site_id
  _symmetry_equiv_pos_as_xyz
   1  'x, y, z'
 
loop_
  _atom_site_type_symbol
  _atom_site_label
  _atom_site_symmetry_multiplicity
  _atom_site_fract_x
  _atom_site_fract_y
  _atom_site_fract_z
  _atom_site_attached_hydrogens
  _atom_site_B_iso_or_equiv
  _atom_site_occupancy
   Na  Na1  1  0.174767  0.080580  0.418062  0  .  1
   Na  Na2  1  0.543066  0.777187  0.724029  0  .  1
   Na  Na3  1  0.705186  0.355548  0.151878  0  .  1
   Na  Na4  1  0.855659  0.926194  0.567795  0  .  1
   Na  Na5  1  0.028999  0.513674  0.989504  0  .  1
   Cu  Cu6  1  0.993664  0.004491  0.993572  0  .  1
   Cu  Cu7  1  0.145549  0.570138  0.431444  0  .  1
   Cu  Cu8  1  0.281451  0.141874  0.857400  0  .  1
   Cu  Cu9  1  0.429967  0.711198  0.283909  0  .  1
   Cu  Cu10  1  0.564281  0.292125  0.700920  0  .  1
   Cu  Cu11  1  0.715899  0.852437  0.144570  0  .  1
   Cu  Cu12  1  0.859364  0.425116  0.574028  0  .  1
   O  O13  1  0.027008  0.573920  0.644000  0  .  1
   O  O14  1  0.098373  0.001514  0.771986  0  .  1
   O  O15  1  0.163320  0.150145  0.068823  0  .  1
   O  O16  1  0.258034  0.571175  0.214740  0  .  1
   O  O17  1  0.406902  0.134779  0.660696  0  .  1
   O  O18  1  0.315129  0.717100  0.500403  0  .  1
   O  O19  1  0.549091  0.704528  0.070672  0  .  1
   O  O20  1  0.700509  0.275733  0.492745  0  .  1
   O  O21  1  0.603981  0.847269  0.364152  0  .  1
   O  O22  1  0.734616  0.433181  0.787945  0  .  1
   O  O23  1  0.826646  0.851608  0.924617  0  .  1
   O  O24  1  0.879840  0.008513  0.212696  0  .  1
   O  O25  1  0.978461  0.420433  0.357632  0  .  1
 
