#\#CIF1.1
##########################################################################
#               Crystallographic Information Format file 
#               Produced by PyCifRW module
# 
#  This is a CIF file.  CIF has been adopted by the International
#  Union of Crystallography as the standard for data archiving and 
#  transmission.
#
#  For information on this file format, follow the CIF links at
#  http://www.iucr.org
##########################################################################

data_Na5CrO4
_symmetry_space_group_name_H-M          'P 1'
_cell_length_a                          7.62236106051
_cell_length_b                          7.2507795409
_cell_length_c                          5.35257189033
_cell_angle_alpha                       90.0012488958
_cell_angle_beta                        89.9998551147
_cell_angle_gamma                       90.0013173197
_chemical_name_systematic               'Generated by pymatgen'
_symmetry_Int_Tables_number             1
_chemical_formula_structural            Na5CrO4
_chemical_formula_sum                   'Na10 Cr2 O8'
_cell_volume                            295.826262264
_cell_formula_units_Z                   2
loop_
  _symmetry_equiv_pos_site_id
  _symmetry_equiv_pos_as_xyz
   1  'x, y, z'
 
loop_
  _atom_site_type_symbol
  _atom_site_label
  _atom_site_symmetry_multiplicity
  _atom_site_fract_x
  _atom_site_fract_y
  _atom_site_fract_z
  _atom_site_attached_hydrogens
  _atom_site_B_iso_or_equiv
  _atom_site_occupancy
   Na  Na1  1  0.057915  0.011393  0.743200  0  .  1
   Na  Na2  1  0.057913  0.488608  0.743192  0  .  1
   Na  Na3  1  0.250003  0.750000  0.182005  0  .  1
   Na  Na4  1  0.442083  0.488602  0.743190  0  .  1
   Na  Na5  1  0.442089  0.011388  0.743199  0  .  1
   Na  Na6  1  0.557834  0.511258  0.256824  0  .  1
   Na  Na7  1  0.557843  0.988736  0.256822  0  .  1
   Na  Na8  1  0.749994  0.249993  0.818029  0  .  1
   Na  Na9  1  0.942148  0.511267  0.256821  0  .  1
   Na  Na10  1  0.942171  0.988745  0.256822  0  .  1
   Cr  Cr11  1  0.249996  0.250015  0.217931  0  .  1
   Cr  Cr12  1  0.750005  0.749996  0.781797  0  .  1
   O  O13  1  0.022290  0.250039  0.033723  0  .  1
   O  O14  1  0.249959  0.475631  0.400810  0  .  1
   O  O15  1  0.250038  0.024388  0.400810  0  .  1
   O  O16  1  0.477706  0.249972  0.033729  0  .  1
   O  O17  1  0.522456  0.749970  0.966475  0  .  1
   O  O18  1  0.749971  0.524186  0.599075  0  .  1
   O  O19  1  0.750032  0.975795  0.599070  0  .  1
   O  O20  1  0.977552  0.750017  0.966475  0  .  1
 
