#\#CIF1.1
##########################################################################
#               Crystallographic Information Format file 
#               Produced by PyCifRW module
# 
#  This is a CIF file.  CIF has been adopted by the International
#  Union of Crystallography as the standard for data archiving and 
#  transmission.
#
#  For information on this file format, follow the CIF links at
#  http://www.iucr.org
##########################################################################

data_Na5CoO4
_symmetry_space_group_name_H-M          'P 1'
_cell_length_a                          5.92145515
_cell_length_b                          7.67072122
_cell_length_c                          6.07293639
_cell_angle_alpha                       90.0
_cell_angle_beta                        90.0
_cell_angle_gamma                       90.0
_chemical_name_systematic               'Generated by pymatgen'
_symmetry_Int_Tables_number             1
_chemical_formula_structural            Na5CoO4
_chemical_formula_sum                   'Na10 Co2 O8'
_cell_volume                            275.843894464
_cell_formula_units_Z                   2
loop_
  _symmetry_equiv_pos_site_id
  _symmetry_equiv_pos_as_xyz
   1  'x, y, z'
 
loop_
  _atom_site_type_symbol
  _atom_site_label
  _atom_site_symmetry_multiplicity
  _atom_site_fract_x
  _atom_site_fract_y
  _atom_site_fract_z
  _atom_site_attached_hydrogens
  _atom_site_B_iso_or_equiv
  _atom_site_occupancy
   Na  Na1  1  0.067586  0.316400  0.931701  0  .  1
   Na  Na2  1  0.067586  0.683600  0.931701  0  .  1
   Na  Na3  1  0.251344  0.699168  0.388590  0  .  1
   Na  Na4  1  0.251344  0.300832  0.388590  0  .  1
   Na  Na5  1  0.253830  0.000000  0.674682  0  .  1
   Na  Na6  1  0.567586  0.816400  0.068299  0  .  1
   Na  Na7  1  0.567586  0.183600  0.068299  0  .  1
   Na  Na8  1  0.751344  0.800832  0.611410  0  .  1
   Na  Na9  1  0.751344  0.199168  0.611410  0  .  1
   Na  Na10  1  0.753830  0.500000  0.325318  0  .  1
   Co  Co11  1  0.004972  0.000000  0.174090  0  .  1
   Co  Co12  1  0.504972  0.500000  0.825910  0  .  1
   O  O13  1  0.310936  0.000000  0.259017  0  .  1
   O  O14  1  0.403138  0.500000  0.128500  0  .  1
   O  O15  1  0.398611  0.279060  0.732638  0  .  1
   O  O16  1  0.398611  0.720940  0.732638  0  .  1
   O  O17  1  0.810936  0.500000  0.740983  0  .  1
   O  O18  1  0.903138  0.000000  0.871500  0  .  1
   O  O19  1  0.898611  0.779060  0.267362  0  .  1
   O  O20  1  0.898611  0.220940  0.267362  0  .  1
 
