#\#CIF1.1
##########################################################################
#               Crystallographic Information Format file 
#               Produced by PyCifRW module
# 
#  This is a CIF file.  CIF has been adopted by the International
#  Union of Crystallography as the standard for data archiving and 
#  transmission.
#
#  For information on this file format, follow the CIF links at
#  http://www.iucr.org
##########################################################################

data_Na5Fe11O16
_symmetry_space_group_name_H-M          'P 1'
_cell_length_a                          6.18709780295
_cell_length_b                          6.18230948935
_cell_length_c                          11.0171117423
_cell_angle_alpha                       90.6417646583
_cell_angle_beta                        72.8266542225
_cell_angle_gamma                       119.991565147
_chemical_name_systematic               'Generated by pymatgen'
_symmetry_Int_Tables_number             1
_chemical_formula_structural            Na5Fe11O16
_chemical_formula_sum                   'Na5 Fe11 O16'
_cell_volume                            343.941225488
_cell_formula_units_Z                   1
loop_
  _symmetry_equiv_pos_site_id
  _symmetry_equiv_pos_as_xyz
   1  'x, y, z'
 
loop_
  _atom_site_type_symbol
  _atom_site_label
  _atom_site_symmetry_multiplicity
  _atom_site_fract_x
  _atom_site_fract_y
  _atom_site_fract_z
  _atom_site_attached_hydrogens
  _atom_site_B_iso_or_equiv
  _atom_site_occupancy
   Na  Na1  1  0.127993  0.313166  0.059845  0  .  1
   Na  Na2  1  0.624536  0.809638  0.060236  0  .  1
   Na  Na3  1  0.622146  0.311967  0.566382  0  .  1
   Na  Na4  1  0.124428  0.809761  0.063414  0  .  1
   Na  Na5  1  0.119726  0.809887  0.566041  0  .  1
   Fe  Fe6  1  0.621069  0.061850  0.314772  0  .  1
   Fe  Fe7  1  0.625253  0.313233  0.058033  0  .  1
   Fe  Fe8  1  0.620524  0.056682  0.814371  0  .  1
   Fe  Fe9  1  0.623824  0.564274  0.313491  0  .  1
   Fe  Fe10  1  0.123440  0.062451  0.312437  0  .  1
   Fe  Fe11  1  0.620598  0.808221  0.567474  0  .  1
   Fe  Fe12  1  0.122348  0.562923  0.313356  0  .  1
   Fe  Fe13  1  0.123447  0.058096  0.814545  0  .  1
   Fe  Fe14  1  0.626976  0.560371  0.810083  0  .  1
   Fe  Fe15  1  0.119561  0.311362  0.567133  0  .  1
   Fe  Fe16  1  0.124048  0.561496  0.815421  0  .  1
   O  O17  1  0.834143  0.414348  0.208342  0  .  1
   O  O18  1  0.871690  0.165793  0.430706  0  .  1
   O  O19  1  0.882349  0.195490  0.919596  0  .  1
   O  O20  1  0.855493  0.931911  0.212997  0  .  1
   O  O21  1  0.880900  0.700103  0.418034  0  .  1
   O  O22  1  0.878099  0.420514  0.699888  0  .  1
   O  O23  1  0.364734  0.424767  0.209062  0  .  1
   O  O24  1  0.373213  0.200247  0.425178  0  .  1
   O  O25  1  0.861957  0.949944  0.692216  0  .  1
   O  O26  1  0.379015  0.959857  0.206451  0  .  1
   O  O27  1  0.363349  0.455027  0.688402  0  .  1
   O  O28  1  0.405283  0.188566  0.925525  0  .  1
   O  O29  1  0.879804  0.662977  0.927194  0  .  1
   O  O30  1  0.396371  0.694039  0.426680  0  .  1
   O  O31  1  0.367990  0.925025  0.705612  0  .  1
   O  O32  1  0.387243  0.694616  0.913968  0  .  1
 
