#\#CIF1.1
##########################################################################
#               Crystallographic Information Format file 
#               Produced by PyCifRW module
# 
#  This is a CIF file.  CIF has been adopted by the International
#  Union of Crystallography as the standard for data archiving and 
#  transmission.
#
#  For information on this file format, follow the CIF links at
#  http://www.iucr.org
##########################################################################

data_Na5Mn7O16
_symmetry_space_group_name_H-M          'P 1'
_cell_length_a                          6.19546108282
_cell_length_b                          6.20147319415
_cell_length_c                          10.8769996169
_cell_angle_alpha                       93.2607566219
_cell_angle_beta                        71.8179962382
_cell_angle_gamma                       123.130299776
_chemical_name_systematic               'Generated by pymatgen'
_symmetry_Int_Tables_number             1
_chemical_formula_structural            Na5Mn7O16
_chemical_formula_sum                   'Na5 Mn7 O16'
_cell_volume                            329.081971241
_cell_formula_units_Z                   1
loop_
  _symmetry_equiv_pos_site_id
  _symmetry_equiv_pos_as_xyz
   1  'x, y, z'
 
loop_
  _atom_site_type_symbol
  _atom_site_label
  _atom_site_symmetry_multiplicity
  _atom_site_fract_x
  _atom_site_fract_y
  _atom_site_fract_z
  _atom_site_attached_hydrogens
  _atom_site_B_iso_or_equiv
  _atom_site_occupancy
   Na  Na1  1  0.823392  0.236511  0.436335  0  .  1
   Na  Na2  1  0.113757  0.306583  0.082788  0  .  1
   Na  Na3  1  0.004676  0.005611  0.499918  0  .  1
   Na  Na4  1  0.887442  0.695307  0.916240  0  .  1
   Na  Na5  1  0.172102  0.757599  0.561820  0  .  1
   Mn  Mn6  1  0.499981  0.000535  0.999781  0  .  1
   Mn  Mn7  1  0.497872  0.277034  0.235344  0  .  1
   Mn  Mn8  1  0.498286  0.765134  0.236946  0  .  1
   Mn  Mn9  1  0.499924  0.234105  0.762654  0  .  1
   Mn  Mn10  1  0.009360  0.231045  0.764517  0  .  1
   Mn  Mn11  1  0.989240  0.768888  0.234943  0  .  1
   Mn  Mn12  1  0.501072  0.722730  0.764260  0  .  1
   O  O13  1  0.684311  0.112515  0.128255  0  .  1
   O  O14  1  0.279453  0.103919  0.117798  0  .  1
   O  O15  1  0.748188  0.084949  0.661144  0  .  1
   O  O16  1  0.738959  0.435648  0.329630  0  .  1
   O  O17  1  0.741178  0.623700  0.133613  0  .  1
   O  O18  1  0.285024  0.410277  0.323200  0  .  1
   O  O19  1  0.740468  0.311654  0.871287  0  .  1
   O  O20  1  0.768711  0.894307  0.322006  0  .  1
   O  O21  1  0.228877  0.105147  0.676864  0  .  1
   O  O22  1  0.713519  0.588825  0.677686  0  .  1
   O  O23  1  0.259170  0.689035  0.128467  0  .  1
   O  O24  1  0.260421  0.564464  0.669957  0  .  1
   O  O25  1  0.256267  0.375371  0.865923  0  .  1
   O  O26  1  0.250526  0.915111  0.338197  0  .  1
   O  O27  1  0.719383  0.896130  0.881507  0  .  1
   O  O28  1  0.315730  0.888712  0.871090  0  .  1
 
