#\#CIF1.1
##########################################################################
#               Crystallographic Information Format file 
#               Produced by PyCifRW module
# 
#  This is a CIF file.  CIF has been adopted by the International
#  Union of Crystallography as the standard for data archiving and 
#  transmission.
#
#  For information on this file format, follow the CIF links at
#  http://www.iucr.org
##########################################################################

data_Na5Mn11O24
_symmetry_space_group_name_H-M          'P 1'
_cell_length_a                          6.00285764885
_cell_length_b                          6.13623210268
_cell_length_c                          14.8436348905
_cell_angle_alpha                       87.1907724664
_cell_angle_beta                        90.0
_cell_angle_gamma                       60.7164392088
_chemical_name_systematic               'Generated by pymatgen'
_symmetry_Int_Tables_number             1
_chemical_formula_structural            Na5Mn11O24
_chemical_formula_sum                   'Na5 Mn11 O24'
_cell_volume                            476.13954617
_cell_formula_units_Z                   1
loop_
  _symmetry_equiv_pos_site_id
  _symmetry_equiv_pos_as_xyz
   1  'x, y, z'
 
loop_
  _atom_site_type_symbol
  _atom_site_label
  _atom_site_symmetry_multiplicity
  _atom_site_fract_x
  _atom_site_fract_y
  _atom_site_fract_z
  _atom_site_attached_hydrogens
  _atom_site_B_iso_or_equiv
  _atom_site_occupancy
   Na  Na1  1  0.849552  0.800895  0.301627  0  .  1
   Na  Na2  1  0.503619  0.492763  0.376200  0  .  1
   Na  Na3  1  0.496545  0.506910  0.623499  0  .  1
   Na  Na4  1  0.149089  0.201823  0.696055  0  .  1
   Na  Na5  1  0.173586  0.152828  0.956756  0  .  1
   Mn  Mn6  1  0.336620  0.826761  0.161353  0  .  1
   Mn  Mn7  1  0.499952  0.500096  0.001778  0  .  1
   Mn  Mn8  1  0.838743  0.323359  0.163835  0  .  1
   Mn  Mn9  1  0.337898  0.323359  0.163835  0  .  1
   Mn  Mn10  1  0.181973  0.136055  0.332045  0  .  1
   Mn  Mn11  1  0.817510  0.864980  0.666920  0  .  1
   Mn  Mn12  1  0.500251  0.999580  0.499467  0  .  1
   Mn  Mn13  1  0.000169  0.999580  0.499467  0  .  1
   Mn  Mn14  1  0.158087  0.679026  0.836483  0  .  1
   Mn  Mn15  1  0.662887  0.679026  0.836483  0  .  1
   Mn  Mn16  1  0.663699  0.172603  0.839327  0  .  1
   O  O17  1  0.218515  0.636829  0.085137  0  .  1
   O  O18  1  0.644655  0.636829  0.085137  0  .  1
   O  O19  1  0.641563  0.216875  0.088380  0  .  1
   O  O20  1  0.507118  0.485764  0.227336  0  .  1
   O  O21  1  0.319371  0.861257  0.427694  0  .  1
   O  O22  1  0.822709  0.854583  0.444789  0  .  1
   O  O23  1  0.164000  0.172000  0.099078  0  .  1
   O  O24  1  0.037276  0.425450  0.239660  0  .  1
   O  O25  1  0.462103  0.002728  0.236038  0  .  1
   O  O26  1  0.099122  0.755320  0.599447  0  .  1
   O  O27  1  0.645559  0.755320  0.599447  0  .  1
   O  O28  1  0.035170  0.002728  0.236038  0  .  1
   O  O29  1  0.964972  0.999761  0.765530  0  .  1
   O  O30  1  0.535267  0.999761  0.765530  0  .  1
   O  O31  1  0.354589  0.244697  0.400724  0  .  1
   O  O32  1  0.900714  0.244697  0.400724  0  .  1
   O  O33  1  0.962306  0.575389  0.761251  0  .  1
   O  O34  1  0.835419  0.829161  0.904443  0  .  1
   O  O35  1  0.177943  0.144112  0.554283  0  .  1
   O  O36  1  0.492488  0.515024  0.772500  0  .  1
   O  O37  1  0.680976  0.138049  0.571837  0  .  1
   O  O38  1  0.360090  0.779822  0.910939  0  .  1
   O  O39  1  0.778627  0.365436  0.913632  0  .  1
   O  O40  1  0.355937  0.365436  0.913632  0  .  1
 
