#\#CIF1.1
##########################################################################
#               Crystallographic Information Format file 
#               Produced by PyCifRW module
# 
#  This is a CIF file.  CIF has been adopted by the International
#  Union of Crystallography as the standard for data archiving and 
#  transmission.
#
#  For information on this file format, follow the CIF links at
#  http://www.iucr.org
##########################################################################

data_Na5Ti3O8
_symmetry_space_group_name_H-M          'P 1'
_cell_length_a                          6.47711600018
_cell_length_b                          6.16841222012
_cell_length_c                          6.16841222012
_cell_angle_alpha                       60.0
_cell_angle_beta                        90.0
_cell_angle_gamma                       118.43553369
_chemical_name_systematic               'Generated by pymatgen'
_symmetry_Int_Tables_number             1
_chemical_formula_structural            Na5Ti3O8
_chemical_formula_sum                   'Na5 Ti3 O8'
_cell_volume                            178.274095124
_cell_formula_units_Z                   1
loop_
  _symmetry_equiv_pos_site_id
  _symmetry_equiv_pos_as_xyz
   1  'x, y, z'
 
loop_
  _atom_site_type_symbol
  _atom_site_label
  _atom_site_symmetry_multiplicity
  _atom_site_fract_x
  _atom_site_fract_y
  _atom_site_fract_z
  _atom_site_attached_hydrogens
  _atom_site_B_iso_or_equiv
  _atom_site_occupancy
   Na  Na1  1  0.125000  0.250000  0.125000  0  .  1
   Na  Na2  1  0.625000  0.750000  0.125000  0  .  1
   Na  Na3  1  0.125000  0.750000  0.125000  0  .  1
   Na  Na4  1  0.125000  0.250000  0.625000  0  .  1
   Na  Na5  1  0.125000  0.750000  0.625000  0  .  1
   Ti  Ti6  1  0.625000  0.250000  0.125000  0  .  1
   Ti  Ti7  1  0.625000  0.250000  0.625000  0  .  1
   Ti  Ti8  1  0.625000  0.750000  0.625000  0  .  1
   O  O9  1  0.831988  0.221325  0.389337  0  .  1
   O  O10  1  0.825047  0.700976  0.423094  0  .  1
   O  O11  1  0.825047  0.248142  0.875930  0  .  1
   O  O12  1  0.424953  0.251858  0.374070  0  .  1
   O  O13  1  0.424953  0.799024  0.374070  0  .  1
   O  O14  1  0.418012  0.278675  0.860663  0  .  1
   O  O15  1  0.825047  0.700976  0.875930  0  .  1
   O  O16  1  0.424953  0.799024  0.826906  0  .  1
 
