#\#CIF1.1
##########################################################################
#               Crystallographic Information Format file 
#               Produced by PyCifRW module
# 
#  This is a CIF file.  CIF has been adopted by the International
#  Union of Crystallography as the standard for data archiving and 
#  transmission.
#
#  For information on this file format, follow the CIF links at
#  http://www.iucr.org
##########################################################################

data_Na5VO5
_symmetry_space_group_name_H-M          'P 1'
_cell_length_a                          5.92629958016
_cell_length_b                          5.92629958016
_cell_length_c                          10.0811354097
_cell_angle_alpha                       80.1073732775
_cell_angle_beta                        99.8926267225
_cell_angle_gamma                       63.4489276251
_chemical_name_systematic               'Generated by pymatgen'
_symmetry_Int_Tables_number             1
_chemical_formula_structural            Na5VO5
_chemical_formula_sum                   'Na10 V2 O10'
_cell_volume                            299.337848344
_cell_formula_units_Z                   2
loop_
  _symmetry_equiv_pos_site_id
  _symmetry_equiv_pos_as_xyz
   1  'x, y, z'
 
loop_
  _atom_site_type_symbol
  _atom_site_label
  _atom_site_symmetry_multiplicity
  _atom_site_fract_x
  _atom_site_fract_y
  _atom_site_fract_z
  _atom_site_attached_hydrogens
  _atom_site_B_iso_or_equiv
  _atom_site_occupancy
   Na  Na1  1  0.254094  0.937096  0.580247  0  .  1
   Na  Na2  1  0.506273  0.767418  0.947648  0  .  1
   Na  Na3  1  0.415877  0.415877  0.750000  0  .  1
   Na  Na4  1  0.062904  0.745907  0.080247  0  .  1
   Na  Na5  1  0.232582  0.493727  0.447648  0  .  1
   Na  Na6  1  0.767418  0.506273  0.552352  0  .  1
   Na  Na7  1  0.937096  0.254094  0.919753  0  .  1
   Na  Na8  1  0.584123  0.584123  0.250000  0  .  1
   Na  Na9  1  0.493727  0.232582  0.052352  0  .  1
   Na  Na10  1  0.745907  0.062904  0.419753  0  .  1
   V  V11  1  0.843100  0.843100  0.750000  0  .  1
   V  V12  1  0.156900  0.156900  0.250000  0  .  1
   O  O13  1  0.170053  0.668947  0.875792  0  .  1
   O  O14  1  0.006716  0.706327  0.608544  0  .  1
   O  O15  1  0.331054  0.829947  0.375792  0  .  1
   O  O16  1  0.293673  0.993284  0.108544  0  .  1
   O  O17  1  0.665123  0.665123  0.750000  0  .  1
   O  O18  1  0.334877  0.334877  0.250000  0  .  1
   O  O19  1  0.706327  0.006716  0.891456  0  .  1
   O  O20  1  0.668947  0.170053  0.624208  0  .  1
   O  O21  1  0.993284  0.293673  0.391456  0  .  1
   O  O22  1  0.829947  0.331054  0.124208  0  .  1
 
