#\#CIF1.1
##########################################################################
#               Crystallographic Information Format file 
#               Produced by PyCifRW module
# 
#  This is a CIF file.  CIF has been adopted by the International
#  Union of Crystallography as the standard for data archiving and 
#  transmission.
#
#  For information on this file format, follow the CIF links at
#  http://www.iucr.org
##########################################################################

data_Na5VO4
_symmetry_space_group_name_H-M          'P 1'
_cell_length_a                          10.69326927
_cell_length_b                          10.44382781
_cell_length_c                          10.82132299
_cell_angle_alpha                       90.0
_cell_angle_beta                        90.0
_cell_angle_gamma                       90.0
_chemical_name_systematic               'Generated by pymatgen'
_symmetry_Int_Tables_number             1
_chemical_formula_structural            Na5VO4
_chemical_formula_sum                   'Na40 V8 O32'
_cell_volume                            1208.51088322
_cell_formula_units_Z                   8
loop_
  _symmetry_equiv_pos_site_id
  _symmetry_equiv_pos_as_xyz
   1  'x, y, z'
 
loop_
  _atom_site_type_symbol
  _atom_site_label
  _atom_site_symmetry_multiplicity
  _atom_site_fract_x
  _atom_site_fract_y
  _atom_site_fract_z
  _atom_site_attached_hydrogens
  _atom_site_B_iso_or_equiv
  _atom_site_occupancy
   Na  Na1  1  0.106770  0.832290  0.114504  0  .  1
   Na  Na2  1  0.106770  0.667710  0.614504  0  .  1
   Na  Na3  1  0.114708  0.144652  0.398887  0  .  1
   Na  Na4  1  0.114708  0.355348  0.898887  0  .  1
   Na  Na5  1  0.119077  0.399129  0.161877  0  .  1
   Na  Na6  1  0.119077  0.100871  0.661877  0  .  1
   Na  Na7  1  0.122414  0.587954  0.354668  0  .  1
   Na  Na8  1  0.122414  0.912046  0.854668  0  .  1
   Na  Na9  1  0.154082  0.864046  0.381384  0  .  1
   Na  Na10  1  0.154082  0.635954  0.881384  0  .  1
   Na  Na11  1  0.345918  0.135954  0.881384  0  .  1
   Na  Na12  1  0.345918  0.364046  0.381384  0  .  1
   Na  Na13  1  0.377586  0.087954  0.354668  0  .  1
   Na  Na14  1  0.377586  0.412046  0.854668  0  .  1
   Na  Na15  1  0.380923  0.600871  0.661877  0  .  1
   Na  Na16  1  0.380923  0.899129  0.161877  0  .  1
   Na  Na17  1  0.385292  0.644652  0.398887  0  .  1
   Na  Na18  1  0.385292  0.855348  0.898887  0  .  1
   Na  Na19  1  0.393230  0.167711  0.614504  0  .  1
   Na  Na20  1  0.393230  0.332290  0.114504  0  .  1
   Na  Na21  1  0.606770  0.667710  0.885496  0  .  1
   Na  Na22  1  0.606770  0.832290  0.385496  0  .  1
   Na  Na23  1  0.614708  0.144652  0.101113  0  .  1
   Na  Na24  1  0.614708  0.355348  0.601113  0  .  1
   Na  Na25  1  0.619077  0.399129  0.338123  0  .  1
   Na  Na26  1  0.619077  0.100871  0.838123  0  .  1
   Na  Na27  1  0.622414  0.587954  0.145332  0  .  1
   Na  Na28  1  0.622414  0.912046  0.645332  0  .  1
   Na  Na29  1  0.654082  0.635954  0.618616  0  .  1
   Na  Na30  1  0.654082  0.864046  0.118616  0  .  1
   Na  Na31  1  0.845918  0.135954  0.618616  0  .  1
   Na  Na32  1  0.845918  0.364046  0.118616  0  .  1
   Na  Na33  1  0.877586  0.087954  0.145332  0  .  1
   Na  Na34  1  0.877586  0.412046  0.645332  0  .  1
   Na  Na35  1  0.880923  0.600871  0.838123  0  .  1
   Na  Na36  1  0.880923  0.899129  0.338123  0  .  1
   Na  Na37  1  0.885292  0.644652  0.101113  0  .  1
   Na  Na38  1  0.885292  0.855348  0.601113  0  .  1
   Na  Na39  1  0.893230  0.167711  0.885496  0  .  1
   Na  Na40  1  0.893230  0.332290  0.385496  0  .  1
   V  V41  1  0.146055  0.114865  0.127024  0  .  1
   V  V42  1  0.146055  0.385135  0.627024  0  .  1
   V  V43  1  0.353945  0.885135  0.627024  0  .  1
   V  V44  1  0.353945  0.614865  0.127024  0  .  1
   V  V45  1  0.646055  0.114865  0.372976  0  .  1
   V  V46  1  0.646055  0.385135  0.872976  0  .  1
   V  V47  1  0.853945  0.614865  0.372976  0  .  1
   V  V48  1  0.853945  0.885135  0.872976  0  .  1
   O  O49  1  0.022908  0.229839  0.050548  0  .  1
   O  O50  1  0.022908  0.270161  0.550548  0  .  1
   O  O51  1  0.051437  0.003220  0.242268  0  .  1
   O  O52  1  0.051437  0.496780  0.742268  0  .  1
   O  O53  1  0.240092  0.001114  0.019898  0  .  1
   O  O54  1  0.240092  0.498886  0.519898  0  .  1
   O  O55  1  0.244666  0.223016  0.238150  0  .  1
   O  O56  1  0.244666  0.276984  0.738150  0  .  1
   O  O57  1  0.255334  0.723016  0.238150  0  .  1
   O  O58  1  0.255334  0.776984  0.738150  0  .  1
   O  O59  1  0.259908  0.998886  0.519898  0  .  1
   O  O60  1  0.259908  0.501114  0.019898  0  .  1
   O  O61  1  0.448563  0.503220  0.242268  0  .  1
   O  O62  1  0.448563  0.996780  0.742268  0  .  1
   O  O63  1  0.477092  0.770161  0.550548  0  .  1
   O  O64  1  0.477092  0.729839  0.050548  0  .  1
   O  O65  1  0.522908  0.270161  0.949452  0  .  1
   O  O66  1  0.522908  0.229839  0.449452  0  .  1
   O  O67  1  0.551437  0.003220  0.257732  0  .  1
   O  O68  1  0.551437  0.496780  0.757732  0  .  1
   O  O69  1  0.740092  0.498886  0.980102  0  .  1
   O  O70  1  0.740092  0.001114  0.480102  0  .  1
   O  O71  1  0.744666  0.223016  0.261850  0  .  1
   O  O72  1  0.744666  0.276984  0.761850  0  .  1
   O  O73  1  0.755334  0.723016  0.261850  0  .  1
   O  O74  1  0.755334  0.776984  0.761850  0  .  1
   O  O75  1  0.759908  0.998886  0.980102  0  .  1
   O  O76  1  0.759908  0.501114  0.480102  0  .  1
   O  O77  1  0.948563  0.996780  0.757732  0  .  1
   O  O78  1  0.948563  0.503220  0.257732  0  .  1
   O  O79  1  0.977092  0.770161  0.949452  0  .  1
   O  O80  1  0.977092  0.729839  0.449452  0  .  1
 
