#\#CIF1.1
##########################################################################
#               Crystallographic Information Format file 
#               Produced by PyCifRW module
# 
#  This is a CIF file.  CIF has been adopted by the International
#  Union of Crystallography as the standard for data archiving and 
#  transmission.
#
#  For information on this file format, follow the CIF links at
#  http://www.iucr.org
##########################################################################

data_Na5V36O88
_symmetry_space_group_name_H-M          'P 1'
_cell_length_a                          22.237697274
_cell_length_b                          3.67549554
_cell_length_c                          20.695954329
_cell_angle_alpha                       90.0
_cell_angle_beta                        105.815354738
_cell_angle_gamma                       90.0
_chemical_name_systematic               'Generated by pymatgen'
_symmetry_Int_Tables_number             1
_chemical_formula_structural            Na5V36O88
_chemical_formula_sum                   'Na5 V36 O88'
_cell_volume                            1627.54008682
_cell_formula_units_Z                   1
loop_
  _symmetry_equiv_pos_site_id
  _symmetry_equiv_pos_as_xyz
   1  'x, y, z'
 
loop_
  _atom_site_type_symbol
  _atom_site_label
  _atom_site_symmetry_multiplicity
  _atom_site_fract_x
  _atom_site_fract_y
  _atom_site_fract_z
  _atom_site_attached_hydrogens
  _atom_site_B_iso_or_equiv
  _atom_site_occupancy
   Na  Na1  1  0.176321  0.750000  0.672519  0  .  1
   Na  Na2  1  0.175726  0.750000  0.172447  0  .  1
   Na  Na3  1  0.820860  0.250000  0.843030  0  .  1
   Na  Na4  1  0.833712  0.250000  0.698242  0  .  1
   Na  Na5  1  0.824246  0.250000  0.326771  0  .  1
   V  V6  1  0.025670  0.250000  0.701547  0  .  1
   V  V7  1  0.090845  0.750000  0.931204  0  .  1
   V  V8  1  0.060237  0.250000  0.543846  0  .  1
   V  V9  1  0.025272  0.250000  0.202225  0  .  1
   V  V10  1  0.090332  0.750000  0.430474  0  .  1
   V  V11  1  0.058664  0.250000  0.043587  0  .  1
   V  V12  1  0.284834  0.250000  0.913763  0  .  1
   V  V13  1  0.253747  0.750000  0.525529  0  .  1
   V  V14  1  0.317396  0.250000  0.755993  0  .  1
   V  V15  1  0.285006  0.250000  0.413757  0  .  1
   V  V16  1  0.368137  0.750000  0.661948  0  .  1
   V  V17  1  0.429821  0.250000  0.890904  0  .  1
   V  V18  1  0.254138  0.750000  0.025727  0  .  1
   V  V19  1  0.317318  0.250000  0.255996  0  .  1
   V  V20  1  0.407692  0.750000  0.507319  0  .  1
   V  V21  1  0.368124  0.750000  0.162002  0  .  1
   V  V22  1  0.430360  0.250000  0.391469  0  .  1
   V  V23  1  0.592484  0.250000  0.992896  0  .  1
   V  V24  1  0.407219  0.750000  0.006786  0  .  1
   V  V25  1  0.570676  0.750000  0.609836  0  .  1
   V  V26  1  0.632588  0.250000  0.838478  0  .  1
   V  V27  1  0.593368  0.250000  0.493143  0  .  1
   V  V28  1  0.683897  0.750000  0.744067  0  .  1
   V  V29  1  0.746058  0.250000  0.976544  0  .  1
   V  V30  1  0.569888  0.750000  0.108950  0  .  1
   V  V31  1  0.631793  0.250000  0.338093  0  .  1
   V  V32  1  0.712361  0.750000  0.582618  0  .  1
   V  V33  1  0.682617  0.750000  0.244225  0  .  1
   V  V34  1  0.746875  0.250000  0.473727  0  .  1
   V  V35  1  0.715250  0.750000  0.086975  0  .  1
   V  V36  1  0.941144  0.750000  0.956864  0  .  1
   V  V37  1  0.911498  0.250000  0.566002  0  .  1
   V  V38  1  0.975529  0.750000  0.797991  0  .  1
   V  V39  1  0.941129  0.750000  0.454812  0  .  1
   V  V40  1  0.910457  0.250000  0.069500  0  .  1
   V  V41  1  0.974842  0.750000  0.297272  0  .  1
   O  O42  1  0.005642  0.750000  0.714145  0  .  1
   O  O43  1  0.080185  0.250000  0.954630  0  .  1
   O  O44  1  0.010157  0.250000  0.610056  0  .  1
   O  O45  1  0.093917  0.750000  0.853619  0  .  1
   O  O46  1  0.044022  0.750000  0.522583  0  .  1
   O  O47  1  0.101367  0.250000  0.723795  0  .  1
   O  O48  1  0.172867  0.750000  0.978949  0  .  1
   O  O49  1  0.004497  0.750000  0.213010  0  .  1
   O  O50  1  0.080720  0.250000  0.454323  0  .  1
   O  O51  1  0.007852  0.250000  0.110231  0  .  1
   O  O52  1  0.129456  0.250000  0.598889  0  .  1
   O  O53  1  0.215835  0.250000  0.863072  0  .  1
   O  O54  1  0.095376  0.750000  0.353885  0  .  1
   O  O55  1  0.042607  0.750000  0.021959  0  .  1
   O  O56  1  0.100973  0.250000  0.223492  0  .  1
   O  O57  1  0.173090  0.750000  0.479738  0  .  1
   O  O58  1  0.241070  0.250000  0.731277  0  .  1
   O  O59  1  0.301643  0.750000  0.938602  0  .  1
   O  O60  1  0.250242  0.750000  0.603882  0  .  1
   O  O61  1  0.127799  0.250000  0.099102  0  .  1
   O  O62  1  0.333438  0.250000  0.850073  0  .  1
   O  O63  1  0.215993  0.250000  0.363142  0  .  1
   O  O64  1  0.265449  0.250000  0.503419  0  .  1
   O  O65  1  0.390847  0.250000  0.984244  0  .  1
   O  O66  1  0.336104  0.750000  0.747822  0  .  1
   O  O67  1  0.345156  0.250000  0.673322  0  .  1
   O  O68  1  0.241060  0.250000  0.231278  0  .  1
   O  O69  1  0.301622  0.750000  0.438691  0  .  1
   O  O70  1  0.425796  0.750000  0.916796  0  .  1
   O  O71  1  0.355490  0.750000  0.571067  0  .  1
   O  O72  1  0.249706  0.750000  0.103764  0  .  1
   O  O73  1  0.434299  0.250000  0.813625  0  .  1
   O  O74  1  0.333626  0.250000  0.350188  0  .  1
   O  O75  1  0.265162  0.250000  0.003226  0  .  1
   O  O76  1  0.442305  0.750000  0.690570  0  .  1
   O  O77  1  0.391045  0.250000  0.483993  0  .  1
   O  O78  1  0.336234  0.750000  0.247902  0  .  1
   O  O79  1  0.519087  0.250000  0.940507  0  .  1
   O  O80  1  0.345206  0.250000  0.173312  0  .  1
   O  O81  1  0.425934  0.750000  0.416644  0  .  1
   O  O82  1  0.355184  0.750000  0.070998  0  .  1
   O  O83  1  0.481116  0.750000  0.559587  0  .  1
   O  O84  1  0.558259  0.250000  0.809248  0  .  1
   O  O85  1  0.434533  0.250000  0.314247  0  .  1
   O  O86  1  0.564788  0.750000  0.686337  0  .  1
   O  O87  1  0.442317  0.750000  0.190348  0  .  1
   O  O88  1  0.518936  0.250000  0.440896  0  .  1
   O  O89  1  0.643438  0.250000  0.929325  0  .  1
   O  O90  1  0.573920  0.250000  0.584218  0  .  1
   O  O91  1  0.655098  0.750000  0.826474  0  .  1
   O  O92  1  0.480568  0.750000  0.059479  0  .  1
   O  O93  1  0.665521  0.250000  0.753166  0  .  1
   O  O94  1  0.611506  0.750000  0.518895  0  .  1
   O  O95  1  0.557533  0.250000  0.309627  0  .  1
   O  O96  1  0.734225  0.750000  0.997790  0  .  1
   O  O97  1  0.665331  0.750000  0.651007  0  .  1
   O  O98  1  0.565551  0.750000  0.186263  0  .  1
   O  O99  1  0.746770  0.250000  0.896996  0  .  1
   O  O100  1  0.645118  0.250000  0.428477  0  .  1
   O  O101  1  0.574123  0.250000  0.083261  0  .  1
   O  O102  1  0.696995  0.250000  0.560447  0  .  1
   O  O103  1  0.761518  0.750000  0.767244  0  .  1
   O  O104  1  0.654864  0.750000  0.326596  0  .  1
   O  O105  1  0.663857  0.250000  0.252027  0  .  1
   O  O106  1  0.608653  0.750000  0.015584  0  .  1
   O  O107  1  0.735011  0.750000  0.495247  0  .  1
   O  O108  1  0.782505  0.750000  0.637236  0  .  1
   O  O109  1  0.666405  0.750000  0.149917  0  .  1
   O  O110  1  0.871719  0.750000  0.901061  0  .  1
   O  O111  1  0.751039  0.250000  0.395740  0  .  1
   O  O112  1  0.698823  0.250000  0.061441  0  .  1
   O  O113  1  0.758909  0.750000  0.268746  0  .  1
   O  O114  1  0.827607  0.250000  0.520582  0  .  1
   O  O115  1  0.898375  0.750000  0.772064  0  .  1
   O  O116  1  0.957271  0.250000  0.977694  0  .  1
   O  O117  1  0.908732  0.250000  0.644869  0  .  1
   O  O118  1  0.784334  0.750000  0.137542  0  .  1
   O  O119  1  0.871957  0.750000  0.399519  0  .  1
   O  O120  1  0.990785  0.750000  0.888326  0  .  1
   O  O121  1  0.919549  0.750000  0.543378  0  .  1
   O  O122  1  0.994709  0.250000  0.786321  0  .  1
   O  O123  1  0.826596  0.250000  0.019551  0  .  1
   O  O124  1  0.899123  0.750000  0.275948  0  .  1
   O  O125  1  0.957052  0.250000  0.478151  0  .  1
   O  O126  1  0.904659  0.250000  0.145910  0  .  1
   O  O127  1  0.992312  0.750000  0.389287  0  .  1
   O  O128  1  0.918936  0.750000  0.045180  0  .  1
   O  O129  1  0.995574  0.250000  0.286504  0  .  1
 
