#\#CIF1.1
##########################################################################
#               Crystallographic Information Format file 
#               Produced by PyCifRW module
# 
#  This is a CIF file.  CIF has been adopted by the International
#  Union of Crystallography as the standard for data archiving and 
#  transmission.
#
#  For information on this file format, follow the CIF links at
#  http://www.iucr.org
##########################################################################

data_Na5V7O14
_symmetry_space_group_name_H-M          'P 1'
_cell_length_a                          8.39236101219
_cell_length_b                          7.26682944655
_cell_length_c                          5.20066349553
_cell_angle_alpha                       98.1734488421
_cell_angle_beta                        102.661116883
_cell_angle_gamma                       90.5961712143
_chemical_name_systematic               'Generated by pymatgen'
_symmetry_Int_Tables_number             1
_chemical_formula_structural            Na5V7O14
_chemical_formula_sum                   'Na5 V7 O14'
_cell_volume                            306.027322776
_cell_formula_units_Z                   1
loop_
  _symmetry_equiv_pos_site_id
  _symmetry_equiv_pos_as_xyz
   1  'x, y, z'
 
loop_
  _atom_site_type_symbol
  _atom_site_label
  _atom_site_symmetry_multiplicity
  _atom_site_fract_x
  _atom_site_fract_y
  _atom_site_fract_z
  _atom_site_attached_hydrogens
  _atom_site_B_iso_or_equiv
  _atom_site_occupancy
   Na  Na1  1  0.134106  0.130863  0.565007  0  .  1
   Na  Na2  1  0.285714  0.285714  0.142857  0  .  1
   Na  Na3  1  0.437323  0.440566  0.720707  0  .  1
   Na  Na4  1  0.717794  0.718204  0.857627  0  .  1
   Na  Na5  1  0.853634  0.853224  0.428087  0  .  1
   V  V6  1  0.073518  0.572917  0.789873  0  .  1
   V  V7  1  0.497910  0.998511  0.495842  0  .  1
   V  V8  1  0.639406  0.144897  0.066879  0  .  1
   V  V9  1  0.217033  0.712418  0.357149  0  .  1
   V  V10  1  0.785714  0.285714  0.642857  0  .  1
   V  V11  1  0.354396  0.859010  0.928566  0  .  1
   V  V12  1  0.932023  0.426532  0.218836  0  .  1
   O  O13  1  0.011125  0.319998  0.886299  0  .  1
   O  O14  1  0.160060  0.454844  0.463563  0  .  1
   O  O15  1  0.411369  0.116585  0.822152  0  .  1
   O  O16  1  0.297463  0.605981  0.037441  0  .  1
   O  O17  1  0.560304  0.251431  0.399415  0  .  1
   O  O18  1  0.136220  0.824878  0.674913  0  .  1
   O  O19  1  0.722842  0.033865  0.740652  0  .  1
   O  O20  1  0.273966  0.965446  0.248273  0  .  1
   O  O21  1  0.435209  0.746551  0.610801  0  .  1
   O  O22  1  0.708381  0.395308  0.945312  0  .  1
   O  O23  1  0.863048  0.176121  0.340402  0  .  1
   O  O24  1  0.848586  0.537564  0.545063  0  .  1
   O  O25  1  0.579250  0.889927  0.159946  0  .  1
   O  O26  1  0.992178  0.681502  0.125768  0  .  1
 
