#\#CIF1.1
##########################################################################
#               Crystallographic Information Format file 
#               Produced by PyCifRW module
# 
#  This is a CIF file.  CIF has been adopted by the International
#  Union of Crystallography as the standard for data archiving and 
#  transmission.
#
#  For information on this file format, follow the CIF links at
#  http://www.iucr.org
##########################################################################

data_Na6FeSe4
_symmetry_space_group_name_H-M          'P 1'
_cell_length_a                          9.35791005
_cell_length_b                          9.35791004782
_cell_length_c                          7.2387816
_cell_angle_alpha                       90.0
_cell_angle_beta                        90.0
_cell_angle_gamma                       119.999999972
_chemical_name_systematic               'Generated by pymatgen'
_symmetry_Int_Tables_number             1
_chemical_formula_structural            Na6FeSe4
_chemical_formula_sum                   'Na12 Fe2 Se8'
_cell_volume                            548.976606431
_cell_formula_units_Z                   2
loop_
  _symmetry_equiv_pos_site_id
  _symmetry_equiv_pos_as_xyz
   1  'x, y, z'
 
loop_
  _atom_site_type_symbol
  _atom_site_label
  _atom_site_symmetry_multiplicity
  _atom_site_fract_x
  _atom_site_fract_y
  _atom_site_fract_z
  _atom_site_attached_hydrogens
  _atom_site_B_iso_or_equiv
  _atom_site_occupancy
   Na  Na1  1  0.148234  0.851766  0.541557  0  .  1
   Na  Na2  1  0.296468  0.148234  0.041557  0  .  1
   Na  Na3  1  0.851766  0.703532  0.041557  0  .  1
   Na  Na4  1  0.148234  0.296468  0.541557  0  .  1
   Na  Na5  1  0.703532  0.851766  0.541557  0  .  1
   Na  Na6  1  0.851766  0.148234  0.041557  0  .  1
   Na  Na7  1  0.530022  0.469978  0.369938  0  .  1
   Na  Na8  1  0.060043  0.530022  0.869938  0  .  1
   Na  Na9  1  0.469978  0.939957  0.869938  0  .  1
   Na  Na10  1  0.530022  0.060043  0.369938  0  .  1
   Na  Na11  1  0.939957  0.469978  0.369938  0  .  1
   Na  Na12  1  0.469978  0.530022  0.869938  0  .  1
   Fe  Fe13  1  0.333333  0.666667  0.252791  0  .  1
   Fe  Fe14  1  0.666667  0.333333  0.752791  0  .  1
   Se  Se15  1  0.333333  0.666667  0.595858  0  .  1
   Se  Se16  1  0.666667  0.333333  0.095858  0  .  1
   Se  Se17  1  0.187979  0.812021  0.145022  0  .  1
   Se  Se18  1  0.375957  0.187979  0.645022  0  .  1
   Se  Se19  1  0.812021  0.624043  0.645022  0  .  1
   Se  Se20  1  0.187979  0.375957  0.145022  0  .  1
   Se  Se21  1  0.624043  0.812021  0.145022  0  .  1
   Se  Se22  1  0.812021  0.187979  0.645022  0  .  1
 
