#\#CIF1.1
##########################################################################
#               Crystallographic Information Format file 
#               Produced by PyCifRW module
# 
#  This is a CIF file.  CIF has been adopted by the International
#  Union of Crystallography as the standard for data archiving and 
#  transmission.
#
#  For information on this file format, follow the CIF links at
#  http://www.iucr.org
##########################################################################

data_Na6Ti2O7
_symmetry_space_group_name_H-M          'P 1'
_cell_length_a                          6.00809895628
_cell_length_b                          8.58790263
_cell_length_c                          9.05993905398
_cell_angle_alpha                       90.0
_cell_angle_beta                        89.0210192184
_cell_angle_gamma                       90.0
_chemical_name_systematic               'Generated by pymatgen'
_symmetry_Int_Tables_number             1
_chemical_formula_structural            Na6Ti2O7
_chemical_formula_sum                   'Na12 Ti4 O14'
_cell_volume                            467.397157201
_cell_formula_units_Z                   2
loop_
  _symmetry_equiv_pos_site_id
  _symmetry_equiv_pos_as_xyz
   1  'x, y, z'
 
loop_
  _atom_site_type_symbol
  _atom_site_label
  _atom_site_symmetry_multiplicity
  _atom_site_fract_x
  _atom_site_fract_y
  _atom_site_fract_z
  _atom_site_attached_hydrogens
  _atom_site_B_iso_or_equiv
  _atom_site_occupancy
   Na  Na1  1  0.179841  0.424857  0.592067  0  .  1
   Na  Na2  1  0.185090  0.560278  0.913695  0  .  1
   Na  Na3  1  0.304962  0.275106  0.178854  0  .  1
   Na  Na4  1  0.301336  0.783460  0.611302  0  .  1
   Na  Na5  1  0.421965  0.926625  0.183880  0  .  1
   Na  Na6  1  0.406236  0.053192  0.871297  0  .  1
   Na  Na7  1  0.679841  0.575143  0.092067  0  .  1
   Na  Na8  1  0.685090  0.439722  0.413695  0  .  1
   Na  Na9  1  0.801336  0.216540  0.111302  0  .  1
   Na  Na10  1  0.804962  0.724894  0.678854  0  .  1
   Na  Na11  1  0.906236  0.946808  0.371297  0  .  1
   Na  Na12  1  0.921965  0.073375  0.683880  0  .  1
   Ti  Ti13  1  0.975904  0.898356  0.998179  0  .  1
   Ti  Ti14  1  0.119739  0.593446  0.281424  0  .  1
   Ti  Ti15  1  0.475904  0.101644  0.498179  0  .  1
   Ti  Ti16  1  0.619739  0.406554  0.781424  0  .  1
   O  O17  1  0.022462  0.660049  0.462123  0  .  1
   O  O18  1  0.038008  0.722356  0.118774  0  .  1
   O  O19  1  0.123026  0.060668  0.078546  0  .  1
   O  O20  1  0.086387  0.869730  0.812484  0  .  1
   O  O21  1  0.180051  0.068898  0.497977  0  .  1
   O  O22  1  0.417792  0.562115  0.277363  0  .  1
   O  O23  1  0.474744  0.584377  0.739953  0  .  1
   O  O24  1  0.522462  0.339951  0.962123  0  .  1
   O  O25  1  0.538008  0.277644  0.618774  0  .  1
   O  O26  1  0.586387  0.130270  0.312484  0  .  1
   O  O27  1  0.623026  0.939332  0.578546  0  .  1
   O  O28  1  0.680051  0.931102  0.997977  0  .  1
   O  O29  1  0.974744  0.415623  0.239953  0  .  1
   O  O30  1  0.917792  0.437885  0.777363  0  .  1
 
