#\#CIF1.1
##########################################################################
#               Crystallographic Information Format file 
#               Produced by PyCifRW module
# 
#  This is a CIF file.  CIF has been adopted by the International
#  Union of Crystallography as the standard for data archiving and 
#  transmission.
#
#  For information on this file format, follow the CIF links at
#  http://www.iucr.org
##########################################################################

data_Na7(CoO3)2
_symmetry_space_group_name_H-M          'P 1'
_cell_length_a                          5.81971559
_cell_length_b                          7.92870391319
_cell_length_c                          10.6478592674
_cell_angle_alpha                       104.083914376
_cell_angle_beta                        90.0
_cell_angle_gamma                       111.530900338
_chemical_name_systematic               'Generated by pymatgen'
_symmetry_Int_Tables_number             1
_chemical_formula_structural            Na7(CoO3)2
_chemical_formula_sum                   'Na14 Co4 O12'
_cell_volume                            441.122164098
_cell_formula_units_Z                   2
loop_
  _symmetry_equiv_pos_site_id
  _symmetry_equiv_pos_as_xyz
   1  'x, y, z'
 
loop_
  _atom_site_type_symbol
  _atom_site_label
  _atom_site_symmetry_multiplicity
  _atom_site_fract_x
  _atom_site_fract_y
  _atom_site_fract_z
  _atom_site_attached_hydrogens
  _atom_site_B_iso_or_equiv
  _atom_site_occupancy
   O  O1  1  0.344715  0.347929  0.581783  0  .  1
   O  O2  1  0.996786  0.652070  0.918217  0  .  1
   O  O3  1  0.655284  0.652071  0.418217  0  .  1
   O  O4  1  0.003215  0.347930  0.081783  0  .  1
   O  O5  1  0.151761  0.757875  0.312006  0  .  1
   O  O6  1  0.393884  0.242124  0.187994  0  .  1
   O  O7  1  0.864577  0.191380  0.376061  0  .  1
   O  O8  1  0.673196  0.808619  0.123939  0  .  1
   O  O9  1  0.135424  0.808620  0.623940  0  .  1
   O  O10  1  0.326805  0.191381  0.876061  0  .  1
   O  O11  1  0.848240  0.242125  0.687995  0  .  1
   O  O12  1  0.606115  0.757876  0.812006  0  .  1
   Na  Na13  1  0.697789  0.119901  0.150434  0  .  1
   Na  Na14  1  0.302210  0.880099  0.849566  0  .  1
   Na  Na15  1  0.760563  0.335622  0.905617  0  .  1
   Na  Na16  1  0.577889  0.880100  0.349566  0  .  1
   Na  Na17  1  0.239436  0.664378  0.094383  0  .  1
   Na  Na18  1  0.575058  0.335621  0.405617  0  .  1
   Na  Na19  1  0.260775  0.446707  0.805966  0  .  1
   Na  Na20  1  0.814067  0.553293  0.694034  0  .  1
   Na  Na21  1  0.739225  0.553293  0.194034  0  .  1
   Na  Na22  1  0.185931  0.446707  0.305967  0  .  1
   Na  Na23  1  0.927685  0.000000  0.750000  0  .  1
   Na  Na24  1  0.072315  0.000000  0.250000  0  .  1
   Na  Na25  1  0.422112  0.119902  0.650434  0  .  1
   Na  Na26  1  0.424943  0.664379  0.594382  0  .  1
   Co  Co27  1  0.008613  0.249841  0.539849  0  .  1
   Co  Co28  1  0.758770  0.750158  0.960152  0  .  1
   Co  Co29  1  0.991388  0.750158  0.460152  0  .  1
   Co  Co30  1  0.241229  0.249842  0.039849  0  .  1
 
