#\#CIF1.1
##########################################################################
#               Crystallographic Information Format file 
#               Produced by PyCifRW module
# 
#  This is a CIF file.  CIF has been adopted by the International
#  Union of Crystallography as the standard for data archiving and 
#  transmission.
#
#  For information on this file format, follow the CIF links at
#  http://www.iucr.org
##########################################################################

data_Na7(Cu6S5)2
_symmetry_space_group_name_H-M          'P 1'
_cell_length_a                          3.78717191
_cell_length_b                          16.1621748126
_cell_length_c                          16.2288525712
_cell_angle_alpha                       90.3739060201
_cell_angle_beta                        90.0
_cell_angle_gamma                       90.0
_chemical_name_systematic               'Generated by pymatgen'
_symmetry_Int_Tables_number             1
_chemical_formula_structural            Na7(Cu6S5)2
_chemical_formula_sum                   'Na14 Cu24 S20'
_cell_volume                            993.329621339
_cell_formula_units_Z                   2
loop_
  _symmetry_equiv_pos_site_id
  _symmetry_equiv_pos_as_xyz
   1  'x, y, z'
 
loop_
  _atom_site_type_symbol
  _atom_site_label
  _atom_site_symmetry_multiplicity
  _atom_site_fract_x
  _atom_site_fract_y
  _atom_site_fract_z
  _atom_site_attached_hydrogens
  _atom_site_B_iso_or_equiv
  _atom_site_occupancy
   Na  Na1  1  0.500000  0.500000  0.000000  0  .  1
   Na  Na2  1  0.000000  0.684687  0.895836  0  .  1
   Na  Na3  1  0.000000  0.315313  0.104164  0  .  1
   Na  Na4  1  0.000000  0.880986  0.290893  0  .  1
   Na  Na5  1  0.000000  0.119014  0.709107  0  .  1
   Na  Na6  1  0.500000  0.719420  0.406537  0  .  1
   Na  Na7  1  0.500000  0.280580  0.593463  0  .  1
   Na  Na8  1  0.500000  0.000000  0.000000  0  .  1
   Na  Na9  1  0.000000  0.802392  0.085049  0  .  1
   Na  Na10  1  0.000000  0.197608  0.914951  0  .  1
   Na  Na11  1  0.000000  0.605967  0.695983  0  .  1
   Na  Na12  1  0.000000  0.394033  0.304017  0  .  1
   Na  Na13  1  0.500000  0.797452  0.606603  0  .  1
   Na  Na14  1  0.500000  0.202548  0.393397  0  .  1
   S  S15  1  0.000000  0.422171  0.645841  0  .  1
   S  S16  1  0.000000  0.577829  0.354159  0  .  1
   S  S17  1  0.500000  0.630300  0.562016  0  .  1
   S  S18  1  0.500000  0.369700  0.437984  0  .  1
   S  S19  1  0.500000  0.556184  0.824568  0  .  1
   S  S20  1  0.500000  0.443816  0.175432  0  .  1
   S  S21  1  0.500000  0.243158  0.767566  0  .  1
   S  S22  1  0.500000  0.756842  0.232434  0  .  1
   S  S23  1  0.000000  0.373499  0.941886  0  .  1
   S  S24  1  0.000000  0.626501  0.058114  0  .  1
   S  S25  1  0.500000  0.022224  0.344196  0  .  1
   S  S26  1  0.500000  0.977776  0.655804  0  .  1
   S  S27  1  0.000000  0.846621  0.471480  0  .  1
   S  S28  1  0.000000  0.153379  0.528520  0  .  1
   S  S29  1  0.000000  0.970726  0.135583  0  .  1
   S  S30  1  0.000000  0.029274  0.864417  0  .  1
   S  S31  1  0.000000  0.226491  0.262789  0  .  1
   S  S32  1  0.000000  0.773509  0.737211  0  .  1
   S  S33  1  0.500000  0.825542  0.946767  0  .  1
   S  S34  1  0.500000  0.174458  0.053233  0  .  1
   Cu  Cu35  1  0.500000  0.491207  0.580308  0  .  1
   Cu  Cu36  1  0.500000  0.508793  0.419692  0  .  1
   Cu  Cu37  1  0.000000  0.412039  0.501357  0  .  1
   Cu  Cu38  1  0.000000  0.587961  0.498643  0  .  1
   Cu  Cu39  1  0.500000  0.447308  0.732894  0  .  1
   Cu  Cu40  1  0.500000  0.552692  0.267106  0  .  1
   Cu  Cu41  1  0.000000  0.323652  0.752044  0  .  1
   Cu  Cu42  1  0.000000  0.676348  0.247956  0  .  1
   Cu  Cu43  1  0.500000  0.349235  0.865697  0  .  1
   Cu  Cu44  1  0.500000  0.650765  0.134303  0  .  1
   Cu  Cu45  1  0.000000  0.476325  0.847111  0  .  1
   Cu  Cu46  1  0.000000  0.523675  0.152889  0  .  1
   Cu  Cu47  1  0.500000  0.925605  0.449100  0  .  1
   Cu  Cu48  1  0.500000  0.074395  0.550900  0  .  1
   Cu  Cu49  1  0.000000  0.046293  0.434242  0  .  1
   Cu  Cu50  1  0.000000  0.953707  0.565758  0  .  1
   Cu  Cu51  1  0.500000  0.013330  0.196637  0  .  1
   Cu  Cu52  1  0.500000  0.986670  0.803363  0  .  1
   Cu  Cu53  1  0.000000  0.087309  0.277823  0  .  1
   Cu  Cu54  1  0.000000  0.912691  0.722177  0  .  1
   Cu  Cu55  1  0.500000  0.187189  0.194216  0  .  1
   Cu  Cu56  1  0.500000  0.812811  0.805784  0  .  1
   Cu  Cu57  1  0.000000  0.111525  0.107485  0  .  1
   Cu  Cu58  1  0.000000  0.888475  0.892515  0  .  1
 
