#\#CIF1.1
##########################################################################
#               Crystallographic Information Format file 
#               Produced by PyCifRW module
# 
#  This is a CIF file.  CIF has been adopted by the International
#  Union of Crystallography as the standard for data archiving and 
#  transmission.
#
#  For information on this file format, follow the CIF links at
#  http://www.iucr.org
##########################################################################

data_Na7(CuO3)2
_symmetry_space_group_name_H-M          'P 1'
_cell_length_a                          5.76321968
_cell_length_b                          7.8306251506
_cell_length_c                          10.7261467503
_cell_angle_alpha                       76.3086906548
_cell_angle_beta                        90.0
_cell_angle_gamma                       68.4081489683
_chemical_name_systematic               'Generated by pymatgen'
_symmetry_Int_Tables_number             1
_chemical_formula_structural            Na7(CuO3)2
_chemical_formula_sum                   'Na14 Cu4 O12'
_cell_volume                            435.27250784
_cell_formula_units_Z                   2
loop_
  _symmetry_equiv_pos_site_id
  _symmetry_equiv_pos_as_xyz
   1  'x, y, z'
 
loop_
  _atom_site_type_symbol
  _atom_site_label
  _atom_site_symmetry_multiplicity
  _atom_site_fract_x
  _atom_site_fract_y
  _atom_site_fract_z
  _atom_site_attached_hydrogens
  _atom_site_B_iso_or_equiv
  _atom_site_occupancy
   Na  Na1  1  0.696145  0.881538  0.651015  0  .  1
   Na  Na2  1  0.573664  0.665420  0.905463  0  .  1
   Na  Na3  1  0.422317  0.881538  0.151015  0  .  1
   Na  Na4  1  0.188724  0.552408  0.803582  0  .  1
   Na  Na5  1  0.760916  0.665420  0.405463  0  .  1
   Na  Na6  1  0.741132  0.447592  0.696418  0  .  1
   Na  Na7  1  0.258868  0.552408  0.303582  0  .  1
   Na  Na8  1  0.239084  0.334580  0.594537  0  .  1
   Na  Na9  1  0.811276  0.447592  0.196418  0  .  1
   Na  Na10  1  0.577683  0.118462  0.848985  0  .  1
   Na  Na11  1  0.426336  0.334580  0.094537  0  .  1
   Na  Na12  1  0.069319  0.000000  0.750000  0  .  1
   Na  Na13  1  0.303855  0.118462  0.348985  0  .  1
   Na  Na14  1  0.930681  0.000000  0.250000  0  .  1
   Cu  Cu15  1  0.243895  0.753131  0.538994  0  .  1
   Cu  Cu16  1  0.002974  0.753131  0.038994  0  .  1
   Cu  Cu17  1  0.997026  0.246869  0.961006  0  .  1
   Cu  Cu18  1  0.756105  0.246869  0.461006  0  .  1
   O  O19  1  0.868412  0.805267  0.872352  0  .  1
   O  O20  1  0.392671  0.756592  0.691123  0  .  1
   O  O21  1  0.326321  0.805267  0.372352  0  .  1
   O  O22  1  0.000014  0.652303  0.582201  0  .  1
   O  O23  1  0.850736  0.756592  0.191123  0  .  1
   O  O24  1  0.652318  0.347697  0.917799  0  .  1
   O  O25  1  0.347682  0.652303  0.082201  0  .  1
   O  O26  1  0.149264  0.243408  0.808877  0  .  1
   O  O27  1  -0.000014  0.347697  0.417799  0  .  1
   O  O28  1  0.673679  0.194733  0.627648  0  .  1
   O  O29  1  0.607329  0.243408  0.308877  0  .  1
   O  O30  1  0.131588  0.194733  0.127648  0  .  1
 
