#\#CIF1.1
##########################################################################
#               Crystallographic Information Format file 
#               Produced by PyCifRW module
# 
#  This is a CIF file.  CIF has been adopted by the International
#  Union of Crystallography as the standard for data archiving and 
#  transmission.
#
#  For information on this file format, follow the CIF links at
#  http://www.iucr.org
##########################################################################

data_Na7Cu7O13
_symmetry_space_group_name_H-M          'P 1'
_cell_length_a                          7.68995332959
_cell_length_b                          6.80648049508
_cell_length_c                          6.76004782575
_cell_angle_alpha                       78.7493265269
_cell_angle_beta                        99.7191705154
_cell_angle_gamma                       80.7441076513
_chemical_name_systematic               'Generated by pymatgen'
_symmetry_Int_Tables_number             1
_chemical_formula_structural            Na7Cu7O13
_chemical_formula_sum                   'Na7 Cu7 O13'
_cell_volume                            335.108020604
_cell_formula_units_Z                   1
loop_
  _symmetry_equiv_pos_site_id
  _symmetry_equiv_pos_as_xyz
   1  'x, y, z'
 
loop_
  _atom_site_type_symbol
  _atom_site_label
  _atom_site_symmetry_multiplicity
  _atom_site_fract_x
  _atom_site_fract_y
  _atom_site_fract_z
  _atom_site_attached_hydrogens
  _atom_site_B_iso_or_equiv
  _atom_site_occupancy
   Na  Na1  1  0.573169  0.785324  0.713505  0  .  1
   Na  Na2  1  0.275093  0.663677  0.851759  0  .  1
   Na  Na3  1  0.854278  0.928388  0.568496  0  .  1
   Na  Na4  1  0.140288  0.071039  0.428901  0  .  1
   Na  Na5  1  0.426031  0.209688  0.301023  0  .  1
   Na  Na6  1  0.726351  0.360561  0.145786  0  .  1
   Na  Na7  1  0.000908  0.499216  0.998792  0  .  1
   Cu  Cu8  1  0.285026  0.142925  0.853432  0  .  1
   Cu  Cu9  1  0.569552  0.283225  0.710781  0  .  1
   Cu  Cu10  1  0.856768  0.426405  0.574377  0  .  1
   Cu  Cu11  1  0.145405  0.568641  0.429956  0  .  1
   Cu  Cu12  1  0.429411  0.711895  0.285060  0  .  1
   Cu  Cu13  1  0.713231  0.856922  0.140619  0  .  1
   Cu  Cu14  1  0.000098  0.004230  0.998738  0  .  1
   O  O15  1  0.739526  0.434768  0.794599  0  .  1
   O  O16  1  0.881268  0.010465  0.216488  0  .  1
   O  O17  1  0.830244  0.849880  0.924424  0  .  1
   O  O18  1  0.691028  0.279416  0.484391  0  .  1
   O  O19  1  0.974167  0.421731  0.354508  0  .  1
   O  O20  1  0.400861  0.138969  0.644525  0  .  1
   O  O21  1  0.315881  0.719180  0.506141  0  .  1
   O  O22  1  0.030097  0.576328  0.649762  0  .  1
   O  O23  1  0.596036  0.867883  0.357888  0  .  1
   O  O24  1  0.174610  0.152288  0.078956  0  .  1
   O  O25  1  0.105139  0.990617  0.776653  0  .  1
   O  O26  1  0.543700  0.701318  0.065053  0  .  1
   O  O27  1  0.261866  0.558347  0.208794  0  .  1
 
