#\#CIF1.1
##########################################################################
#               Crystallographic Information Format file 
#               Produced by PyCifRW module
# 
#  This is a CIF file.  CIF has been adopted by the International
#  Union of Crystallography as the standard for data archiving and 
#  transmission.
#
#  For information on this file format, follow the CIF links at
#  http://www.iucr.org
##########################################################################

data_Na7Mn16O32
_symmetry_space_group_name_H-M          'P 1'
_cell_length_a                          8.66340635536
_cell_length_b                          10.4833315728
_cell_length_c                          8.78762896785
_cell_angle_alpha                       65.6185802017
_cell_angle_beta                        90.2391230529
_cell_angle_gamma                       114.198562344
_chemical_name_systematic               'Generated by pymatgen'
_symmetry_Int_Tables_number             1
_chemical_formula_structural            Na7Mn16O32
_chemical_formula_sum                   'Na7 Mn16 O32'
_cell_volume                            649.838120144
_cell_formula_units_Z                   1
loop_
  _symmetry_equiv_pos_site_id
  _symmetry_equiv_pos_as_xyz
   1  'x, y, z'
 
loop_
  _atom_site_type_symbol
  _atom_site_label
  _atom_site_symmetry_multiplicity
  _atom_site_fract_x
  _atom_site_fract_y
  _atom_site_fract_z
  _atom_site_attached_hydrogens
  _atom_site_B_iso_or_equiv
  _atom_site_occupancy
   Na  Na1  1  0.440255  0.131305  0.306600  0  .  1
   Na  Na2  1  0.807409  0.369009  0.938736  0  .  1
   Na  Na3  1  0.311985  0.373698  0.442084  0  .  1
   Na  Na4  1  0.695678  0.626192  0.564745  0  .  1
   Na  Na5  1  0.190991  0.625591  0.061391  0  .  1
   Na  Na6  1  0.062065  0.880084  0.184975  0  .  1
   Na  Na7  1  0.559219  0.872233  0.686368  0  .  1
   Mn  Mn8  1  0.503816  0.998435  0.998378  0  .  1
   Mn  Mn9  1  0.753141  0.999233  0.252405  0  .  1
   Mn  Mn10  1  0.250277  0.005445  0.741115  0  .  1
   Mn  Mn11  1  0.002606  0.009278  0.505519  0  .  1
   Mn  Mn12  1  0.626426  0.245877  0.627553  0  .  1
   Mn  Mn13  1  0.370435  0.250336  0.864548  0  .  1
   Mn  Mn14  1  0.122327  0.250036  0.117863  0  .  1
   Mn  Mn15  1  0.871275  0.247426  0.383113  0  .  1
   Mn  Mn16  1  0.497843  0.504726  0.991196  0  .  1
   Mn  Mn17  1  0.994235  0.490422  0.512354  0  .  1
   Mn  Mn18  1  0.751993  0.503933  0.253067  0  .  1
   Mn  Mn19  1  0.244144  0.488229  0.742146  0  .  1
   Mn  Mn20  1  0.377622  0.749311  0.379538  0  .  1
   Mn  Mn21  1  0.872804  0.756031  0.869350  0  .  1
   Mn  Mn22  1  0.631844  0.752563  0.128851  0  .  1
   Mn  Mn23  1  0.123478  0.749786  0.624432  0  .  1
   O  O24  1  0.778564  0.017306  0.472820  0  .  1
   O  O25  1  0.277556  0.017002  0.961257  0  .  1
   O  O26  1  0.482637  0.023583  0.734940  0  .  1
   O  O27  1  0.995371  0.025108  0.266750  0  .  1
   O  O28  1  0.879164  0.232128  0.165855  0  .  1
   O  O29  1  0.390920  0.235005  0.651464  0  .  1
   O  O30  1  0.593753  0.225952  0.860555  0  .  1
   O  O31  1  0.083439  0.232792  0.383602  0  .  1
   O  O32  1  0.157892  0.264939  0.855790  0  .  1
   O  O33  1  0.364729  0.265754  0.077668  0  .  1
   O  O34  1  0.652927  0.268636  0.393110  0  .  1
   O  O35  1  0.858970  0.255513  0.601613  0  .  1
   O  O36  1  0.969926  0.478170  0.289749  0  .  1
   O  O37  1  0.459556  0.474691  0.754305  0  .  1
   O  O38  1  0.764117  0.467053  0.523831  0  .  1
   O  O39  1  0.252239  0.476541  0.974512  0  .  1
   O  O40  1  0.023479  0.489525  0.729244  0  .  1
   O  O41  1  0.733354  0.528892  0.983677  0  .  1
   O  O42  1  0.233748  0.517199  0.506003  0  .  1
   O  O43  1  0.539434  0.525835  0.238765  0  .  1
   O  O44  1  0.847400  0.734720  0.108545  0  .  1
   O  O45  1  0.340405  0.721976  0.615594  0  .  1
   O  O46  1  0.101765  0.714931  0.420152  0  .  1
   O  O47  1  0.606845  0.730181  0.922541  0  .  1
   O  O48  1  0.142038  0.783299  0.828301  0  .  1
   O  O49  1  0.649793  0.778254  0.335840  0  .  1
   O  O50  1  0.910258  0.782520  0.629236  0  .  1
   O  O51  1  0.411339  0.769278  0.143669  0  .  1
   O  O52  1  0.730033  0.986755  0.035654  0  .  1
   O  O53  1  0.012260  0.987696  0.738699  0  .  1
   O  O54  1  0.224871  0.015510  0.518556  0  .  1
   O  O55  1  0.522692  0.977365  0.264535  0  .  1
 
