#\#CIF1.1
##########################################################################
#               Crystallographic Information Format file 
#               Produced by PyCifRW module
# 
#  This is a CIF file.  CIF has been adopted by the International
#  Union of Crystallography as the standard for data archiving and 
#  transmission.
#
#  For information on this file format, follow the CIF links at
#  http://www.iucr.org
##########################################################################

data_Na7Mn10O24
_symmetry_space_group_name_H-M          'P 1'
_cell_length_a                          6.11190871214
_cell_length_b                          6.11225505476
_cell_length_c                          16.4817794602
_cell_angle_alpha                       81.7906097243
_cell_angle_beta                        77.7808771935
_cell_angle_gamma                       121.490084917
_chemical_name_systematic               'Generated by pymatgen'
_symmetry_Int_Tables_number             1
_chemical_formula_structural            Na7Mn10O24
_chemical_formula_sum                   'Na7 Mn10 O24'
_cell_volume                            488.863330052
_cell_formula_units_Z                   1
loop_
  _symmetry_equiv_pos_site_id
  _symmetry_equiv_pos_as_xyz
   1  'x, y, z'
 
loop_
  _atom_site_type_symbol
  _atom_site_label
  _atom_site_symmetry_multiplicity
  _atom_site_fract_x
  _atom_site_fract_y
  _atom_site_fract_z
  _atom_site_attached_hydrogens
  _atom_site_B_iso_or_equiv
  _atom_site_occupancy
   Na  Na1  1  0.872757  0.051991  0.287608  0  .  1
   Na  Na2  1  0.500895  0.334414  0.332318  0  .  1
   Na  Na3  1  0.859599  0.377896  0.631194  0  .  1
   Na  Na4  1  0.134635  0.621024  0.372140  0  .  1
   Na  Na5  1  0.492071  0.330286  0.838987  0  .  1
   Na  Na6  1  0.879005  0.708538  0.956135  0  .  1
   Na  Na7  1  0.114528  0.956634  0.714490  0  .  1
   Mn  Mn8  1  0.513747  0.987319  0.999487  0  .  1
   Mn  Mn9  1  0.514876  0.178263  0.156583  0  .  1
   Mn  Mn10  1  0.488848  0.994613  0.508213  0  .  1
   Mn  Mn11  1  0.514245  0.671810  0.157004  0  .  1
   Mn  Mn12  1  0.488061  0.488760  0.508928  0  .  1
   Mn  Mn13  1  0.993292  0.993977  0.508917  0  .  1
   Mn  Mn14  1  0.008625  0.672028  0.156595  0  .  1
   Mn  Mn15  1  0.484377  0.672145  0.671716  0  .  1
   Mn  Mn16  1  0.501652  0.838508  0.833152  0  .  1
   Mn  Mn17  1  0.995279  0.332054  0.833166  0  .  1
   O  O18  1  0.706248  0.050494  0.083538  0  .  1
   O  O19  1  0.288955  0.050119  0.080518  0  .  1
   O  O20  1  0.761566  0.298645  0.219915  0  .  1
   O  O21  1  0.743984  0.566950  0.094621  0  .  1
   O  O22  1  0.719837  0.036865  0.581262  0  .  1
   O  O23  1  0.313357  0.294678  0.219555  0  .  1
   O  O24  1  0.766185  0.747529  0.219565  0  .  1
   O  O25  1  0.690154  0.371526  0.447643  0  .  1
   O  O26  1  0.282452  0.626705  0.083561  0  .  1
   O  O27  1  0.237659  0.367672  0.447298  0  .  1
   O  O28  1  0.257144  0.097585  0.572518  0  .  1
   O  O29  1  0.276825  0.779410  0.221890  0  .  1
   O  O30  1  0.713770  0.616429  0.584831  0  .  1
   O  O31  1  0.726458  0.887045  0.443227  0  .  1
   O  O32  1  0.746104  0.210818  0.771612  0  .  1
   O  O33  1  0.300498  0.617469  0.581279  0  .  1
   O  O34  1  0.753895  0.346337  0.921578  0  .  1
   O  O35  1  0.688173  0.759281  0.745315  0  .  1
   O  O36  1  0.250240  0.321172  0.745376  0  .  1
   O  O37  1  0.233067  0.914398  0.447658  0  .  1
   O  O38  1  0.255025  0.723311  0.760794  0  .  1
   O  O39  1  0.244292  0.463619  0.896088  0  .  1
   O  O40  1  0.752083  0.946957  0.900484  0  .  1
   O  O41  1  0.310538  0.903057  0.921573  0  .  1
 
