#\#CIF1.1
##########################################################################
#               Crystallographic Information Format file 
#               Produced by PyCifRW module
# 
#  This is a CIF file.  CIF has been adopted by the International
#  Union of Crystallography as the standard for data archiving and 
#  transmission.
#
#  For information on this file format, follow the CIF links at
#  http://www.iucr.org
##########################################################################

data_Na7Ti16O32
_symmetry_space_group_name_H-M          'P 1'
_cell_length_a                          8.68550275566
_cell_length_b                          10.6339244475
_cell_length_c                          8.67024796313
_cell_angle_alpha                       65.9321526194
_cell_angle_beta                        90.0099703218
_cell_angle_gamma                       114.113589859
_chemical_name_systematic               'Generated by pymatgen'
_symmetry_Int_Tables_number             1
_chemical_formula_structural            Na7Ti16O32
_chemical_formula_sum                   'Na7 Ti16 O32'
_cell_volume                            653.925343647
_cell_formula_units_Z                   1
loop_
  _symmetry_equiv_pos_site_id
  _symmetry_equiv_pos_as_xyz
   1  'x, y, z'
 
loop_
  _atom_site_type_symbol
  _atom_site_label
  _atom_site_symmetry_multiplicity
  _atom_site_fract_x
  _atom_site_fract_y
  _atom_site_fract_z
  _atom_site_attached_hydrogens
  _atom_site_B_iso_or_equiv
  _atom_site_occupancy
   Na  Na1  1  0.438656  0.125624  0.310738  0  .  1
   Na  Na2  1  0.811568  0.373914  0.935832  0  .  1
   Na  Na3  1  0.309648  0.373799  0.441782  0  .  1
   Na  Na4  1  0.687563  0.625591  0.565113  0  .  1
   Na  Na5  1  0.187437  0.624455  0.063766  0  .  1
   Na  Na6  1  0.567398  0.878003  0.687212  0  .  1
   Na  Na7  1  0.061904  0.876486  0.186152  0  .  1
   Ti  Ti8  1  0.753967  0.002463  0.241568  0  .  1
   Ti  Ti9  1  0.245475  0.002744  0.750897  0  .  1
   Ti  Ti10  1  0.998720  0.002830  0.504097  0  .  1
   Ti  Ti11  1  0.504560  0.000242  0.996611  0  .  1
   Ti  Ti12  1  0.120643  0.248193  0.121152  0  .  1
   Ti  Ti13  1  0.875633  0.249387  0.379659  0  .  1
   Ti  Ti14  1  0.630608  0.248052  0.629282  0  .  1
   Ti  Ti15  1  0.368765  0.249200  0.872396  0  .  1
   Ti  Ti16  1  0.999263  0.497935  0.501934  0  .  1
   Ti  Ti17  1  0.747503  0.499102  0.250958  0  .  1
   Ti  Ti18  1  0.498736  0.497524  0.001838  0  .  1
   Ti  Ti19  1  0.244149  0.495514  0.752994  0  .  1
   Ti  Ti20  1  0.876470  0.753698  0.873918  0  .  1
   Ti  Ti21  1  0.376934  0.751580  0.375819  0  .  1
   Ti  Ti22  1  0.627574  0.753584  0.121406  0  .  1
   Ti  Ti23  1  0.128765  0.754100  0.623058  0  .  1
   O  O24  1  0.278854  0.018785  0.972462  0  .  1
   O  O25  1  0.778347  0.019305  0.469482  0  .  1
   O  O26  1  0.991259  0.019387  0.258880  0  .  1
   O  O27  1  0.488987  0.018184  0.758190  0  .  1
   O  O28  1  0.595660  0.230947  0.866449  0  .  1
   O  O29  1  0.097279  0.232488  0.364347  0  .  1
   O  O30  1  0.385886  0.232258  0.652637  0  .  1
   O  O31  1  0.884164  0.233120  0.152112  0  .  1
   O  O32  1  0.363652  0.267970  0.097021  0  .  1
   O  O33  1  0.150178  0.267086  0.883041  0  .  1
   O  O34  1  0.867146  0.268656  0.598900  0  .  1
   O  O35  1  0.653492  0.268184  0.384843  0  .  1
   O  O36  1  0.257493  0.480409  0.991822  0  .  1
   O  O37  1  0.469855  0.481193  0.777720  0  .  1
   O  O38  1  0.972013  0.482533  0.278500  0  .  1
   O  O39  1  0.758425  0.480745  0.492735  0  .  1
   O  O40  1  0.027871  0.522074  0.722161  0  .  1
   O  O41  1  0.240722  0.519837  0.509800  0  .  1
   O  O42  1  0.526582  0.518834  0.223126  0  .  1
   O  O43  1  0.739319  0.517854  0.009402  0  .  1
   O  O44  1  0.632900  0.729509  0.902833  0  .  1
   O  O45  1  0.136117  0.733088  0.402143  0  .  1
   O  O46  1  0.847068  0.730710  0.116344  0  .  1
   O  O47  1  0.348823  0.732474  0.616259  0  .  1
   O  O48  1  0.115940  0.769840  0.847813  0  .  1
   O  O49  1  0.403660  0.768529  0.133453  0  .  1
   O  O50  1  0.904305  0.770819  0.633142  0  .  1
   O  O51  1  0.618105  0.769634  0.346015  0  .  1
   O  O52  1  0.008482  0.983321  0.740796  0  .  1
   O  O53  1  0.723561  0.982665  0.024032  0  .  1
   O  O54  1  0.222926  0.983863  0.527020  0  .  1
   O  O55  1  0.510984  0.981743  0.239391  0  .  1
 
