#\#CIF1.1
##########################################################################
#               Crystallographic Information Format file 
#               Produced by PyCifRW module
# 
#  This is a CIF file.  CIF has been adopted by the International
#  Union of Crystallography as the standard for data archiving and 
#  transmission.
#
#  For information on this file format, follow the CIF links at
#  http://www.iucr.org
##########################################################################

data_Na8(CuO2)5
_symmetry_space_group_name_H-M          'P 1'
_cell_length_a                          5.72652057948
_cell_length_b                          8.19449885729
_cell_length_c                          8.19449826907
_cell_angle_alpha                       118.528008439
_cell_angle_beta                        101.00127952
_cell_angle_gamma                       101.001275635
_chemical_name_systematic               'Generated by pymatgen'
_symmetry_Int_Tables_number             1
_chemical_formula_structural            Na8(CuO2)5
_chemical_formula_sum                   'Na8 Cu5 O10'
_cell_volume                            313.411731021
_cell_formula_units_Z                   1
loop_
  _symmetry_equiv_pos_site_id
  _symmetry_equiv_pos_as_xyz
   1  'x, y, z'
 
loop_
  _atom_site_type_symbol
  _atom_site_label
  _atom_site_symmetry_multiplicity
  _atom_site_fract_x
  _atom_site_fract_y
  _atom_site_fract_z
  _atom_site_attached_hydrogens
  _atom_site_B_iso_or_equiv
  _atom_site_occupancy
   Na  Na1  1  0.401572  0.262795  0.539931  0  .  1
   Na  Na2  1  0.366459  0.737169  0.958465  0  .  1
   Na  Na3  1  0.090644  0.519267  0.519267  0  .  1
   Na  Na4  1  0.140563  0.852381  0.295276  0  .  1
   Na  Na5  1  0.401572  0.539931  0.262795  0  .  1
   Na  Na6  1  0.366459  0.958465  0.737169  0  .  1
   Na  Na7  1  0.140563  0.295276  0.852381  0  .  1
   Na  Na8  1  0.146907  0.089472  0.089472  0  .  1
   Cu  Cu9  1  0.750887  0.018983  0.417130  0  .  1
   Cu  Cu10  1  0.779303  0.627991  0.827696  0  .  1
   Cu  Cu11  1  0.779303  0.827696  0.627991  0  .  1
   Cu  Cu12  1  0.722721  0.198419  0.198419  0  .  1
   Cu  Cu13  1  0.750887  0.417130  0.018983  0  .  1
   O  O14  1  0.527827  0.478790  0.875440  0  .  1
   O  O15  1  0.530263  0.663211  0.663211  0  .  1
   O  O16  1  0.981545  0.160508  0.358079  0  .  1
   O  O17  1  0.981545  0.358079  0.160508  0  .  1
   O  O18  1  0.005669  0.570985  0.984897  0  .  1
   O  O19  1  0.527827  0.875440  0.478790  0  .  1
   O  O20  1  0.026847  0.781597  0.781597  0  .  1
   O  O21  1  0.490084  0.045925  0.259784  0  .  1
   O  O22  1  0.005669  0.984897  0.570985  0  .  1
   O  O23  1  0.490084  0.259784  0.045925  0  .  1
 
