#\#CIF1.1
##########################################################################
#               Crystallographic Information Format file 
#               Produced by PyCifRW module
# 
#  This is a CIF file.  CIF has been adopted by the International
#  Union of Crystallography as the standard for data archiving and 
#  transmission.
#
#  For information on this file format, follow the CIF links at
#  http://www.iucr.org
##########################################################################

data_Na8Co2O7
_symmetry_space_group_name_H-M          'P 1'
_cell_length_a                          8.65290518327
_cell_length_b                          11.0150342
_cell_length_c                          10.1018191719
_cell_angle_alpha                       90.0
_cell_angle_beta                        106.614588026
_cell_angle_gamma                       90.0
_chemical_name_systematic               'Generated by pymatgen'
_symmetry_Int_Tables_number             1
_chemical_formula_structural            Na8Co2O7
_chemical_formula_sum                   'Na32 Co8 O28'
_cell_volume                            922.626924488
_cell_formula_units_Z                   4
loop_
  _symmetry_equiv_pos_site_id
  _symmetry_equiv_pos_as_xyz
   1  'x, y, z'
 
loop_
  _atom_site_type_symbol
  _atom_site_label
  _atom_site_symmetry_multiplicity
  _atom_site_fract_x
  _atom_site_fract_y
  _atom_site_fract_z
  _atom_site_attached_hydrogens
  _atom_site_B_iso_or_equiv
  _atom_site_occupancy
   Na  Na1  1  0.121567  0.476248  0.922845  0  .  1
   Na  Na2  1  0.080461  0.459069  0.645603  0  .  1
   Na  Na3  1  0.105662  0.741135  0.532533  0  .  1
   Na  Na4  1  0.121567  0.023752  0.422845  0  .  1
   Na  Na5  1  0.255581  0.945033  0.714988  0  .  1
   Na  Na6  1  0.080461  0.040931  0.145603  0  .  1
   Na  Na7  1  0.285713  0.249886  0.568874  0  .  1
   Na  Na8  1  0.105662  0.758865  0.032533  0  .  1
   Na  Na9  1  0.432081  0.473424  0.856181  0  .  1
   Na  Na10  1  0.339482  0.504640  0.515758  0  .  1
   Na  Na11  1  0.255581  0.554967  0.214988  0  .  1
   Na  Na12  1  0.498968  0.231810  0.873465  0  .  1
   Na  Na13  1  0.285713  0.250114  0.068874  0  .  1
   Na  Na14  1  0.501032  0.731810  0.626535  0  .  1
   Na  Na15  1  0.432081  0.026576  0.356181  0  .  1
   Na  Na16  1  0.660518  0.004640  0.984242  0  .  1
   Na  Na17  1  0.339482  0.995360  0.015758  0  .  1
   Na  Na18  1  0.567919  0.973423  0.643819  0  .  1
   Na  Na19  1  0.498968  0.268190  0.373465  0  .  1
   Na  Na20  1  0.714287  0.749886  0.931126  0  .  1
   Na  Na21  1  0.501032  0.768190  0.126535  0  .  1
   Na  Na22  1  0.744419  0.445033  0.785012  0  .  1
   Na  Na23  1  0.660518  0.495360  0.484242  0  .  1
   Na  Na24  1  0.567919  0.526577  0.143819  0  .  1
   Na  Na25  1  0.894338  0.241135  0.967467  0  .  1
   Na  Na26  1  0.714287  0.750114  0.431126  0  .  1
   Na  Na27  1  0.919539  0.959069  0.854397  0  .  1
   Na  Na28  1  0.744419  0.054967  0.285012  0  .  1
   Na  Na29  1  0.878433  0.976248  0.577155  0  .  1
   Na  Na30  1  0.894338  0.258865  0.467467  0  .  1
   Na  Na31  1  0.919539  0.540931  0.354397  0  .  1
   Na  Na32  1  0.878433  0.523752  0.077155  0  .  1
   Co  Co33  1  0.092996  0.198520  0.773056  0  .  1
   Co  Co34  1  0.092996  0.301480  0.273056  0  .  1
   Co  Co35  1  0.309433  0.713971  0.845448  0  .  1
   Co  Co36  1  0.309433  0.786029  0.345448  0  .  1
   Co  Co37  1  0.690567  0.213971  0.654552  0  .  1
   Co  Co38  1  0.690567  0.286029  0.154552  0  .  1
   Co  Co39  1  0.907004  0.698520  0.726944  0  .  1
   Co  Co40  1  0.907004  0.801480  0.226944  0  .  1
   O  O41  1  0.107761  0.111536  0.934050  0  .  1
   O  O42  1  0.101972  0.799440  0.784335  0  .  1
   O  O43  1  0.101456  0.110930  0.621042  0  .  1
   O  O44  1  0.107761  0.388464  0.434050  0  .  1
   O  O45  1  0.249029  0.325308  0.819050  0  .  1
   O  O46  1  0.101972  0.700560  0.284335  0  .  1
   O  O47  1  0.101456  0.389070  0.121042  0  .  1
   O  O48  1  0.317956  0.618697  0.699056  0  .  1
   O  O49  1  0.249029  0.174692  0.319050  0  .  1
   O  O50  1  0.456813  0.849231  0.895746  0  .  1
   O  O51  1  0.329943  0.883105  0.505352  0  .  1
   O  O52  1  0.317956  0.881303  0.199056  0  .  1
   O  O53  1  0.456813  0.650769  0.395746  0  .  1
   O  O54  1  0.670057  0.383105  0.994648  0  .  1
   O  O55  1  0.329943  0.616895  0.005352  0  .  1
   O  O56  1  0.543187  0.349231  0.604254  0  .  1
   O  O57  1  0.682044  0.118697  0.800944  0  .  1
   O  O58  1  0.670057  0.116895  0.494648  0  .  1
   O  O59  1  0.543187  0.150769  0.104254  0  .  1
   O  O60  1  0.750971  0.825308  0.680950  0  .  1
   O  O61  1  0.682044  0.381303  0.300944  0  .  1
   O  O62  1  0.898544  0.610930  0.878958  0  .  1
   O  O63  1  0.898028  0.299440  0.715665  0  .  1
   O  O64  1  0.750971  0.674692  0.180950  0  .  1
   O  O65  1  0.892239  0.611536  0.565950  0  .  1
   O  O66  1  0.898544  0.889070  0.378958  0  .  1
   O  O67  1  0.898028  0.200560  0.215665  0  .  1
   O  O68  1  0.892239  0.888464  0.065950  0  .  1
 
