#\#CIF1.1
##########################################################################
#               Crystallographic Information Format file 
#               Produced by PyCifRW module
# 
#  This is a CIF file.  CIF has been adopted by the International
#  Union of Crystallography as the standard for data archiving and 
#  transmission.
#
#  For information on this file format, follow the CIF links at
#  http://www.iucr.org
##########################################################################

data_Na8TiO6
_symmetry_space_group_name_H-M          'P 1'
_cell_length_a                          13.93894333
_cell_length_b                          6.63069986
_cell_length_c                          9.59246266
_cell_angle_alpha                       90.0
_cell_angle_beta                        90.0
_cell_angle_gamma                       90.0
_chemical_name_systematic               'Generated by pymatgen'
_symmetry_Int_Tables_number             1
_chemical_formula_structural            Na8TiO6
_chemical_formula_sum                   'Na32 Ti4 O24'
_cell_volume                            886.582877764
_cell_formula_units_Z                   4
loop_
  _symmetry_equiv_pos_site_id
  _symmetry_equiv_pos_as_xyz
   1  'x, y, z'
 
loop_
  _atom_site_type_symbol
  _atom_site_label
  _atom_site_symmetry_multiplicity
  _atom_site_fract_x
  _atom_site_fract_y
  _atom_site_fract_z
  _atom_site_attached_hydrogens
  _atom_site_B_iso_or_equiv
  _atom_site_occupancy
   Na  Na1  1  0.012554  0.512044  0.773838  0  .  1
   Na  Na2  1  0.062950  0.272947  0.524690  0  .  1
   Na  Na3  1  0.071176  0.917755  0.189629  0  .  1
   Na  Na4  1  0.077319  0.940089  0.830533  0  .  1
   Na  Na5  1  0.115424  0.336649  0.011427  0  .  1
   Na  Na6  1  0.219832  0.550465  0.817791  0  .  1
   Na  Na7  1  0.229064  0.579003  0.198558  0  .  1
   Na  Na8  1  0.249725  0.921075  0.007433  0  .  1
   Na  Na9  1  0.250275  0.421075  0.507433  0  .  1
   Na  Na10  1  0.270936  0.079003  0.698558  0  .  1
   Na  Na11  1  0.280168  0.050465  0.317791  0  .  1
   Na  Na12  1  0.384576  0.836649  0.511427  0  .  1
   Na  Na13  1  0.422681  0.440089  0.330533  0  .  1
   Na  Na14  1  0.428824  0.417755  0.689629  0  .  1
   Na  Na15  1  0.437050  0.772947  0.024690  0  .  1
   Na  Na16  1  0.487446  0.012044  0.273838  0  .  1
   Na  Na17  1  0.512554  0.987956  0.773838  0  .  1
   Na  Na18  1  0.562950  0.227053  0.524690  0  .  1
   Na  Na19  1  0.571176  0.582245  0.189629  0  .  1
   Na  Na20  1  0.577319  0.559911  0.830533  0  .  1
   Na  Na21  1  0.615424  0.163352  0.011427  0  .  1
   Na  Na22  1  0.719832  0.949535  0.817791  0  .  1
   Na  Na23  1  0.729064  0.920997  0.198558  0  .  1
   Na  Na24  1  0.749725  0.578925  0.007433  0  .  1
   Na  Na25  1  0.750275  0.078925  0.507433  0  .  1
   Na  Na26  1  0.770936  0.420997  0.698558  0  .  1
   Na  Na27  1  0.780168  0.449535  0.317791  0  .  1
   Na  Na28  1  0.884576  0.663351  0.511427  0  .  1
   Na  Na29  1  0.922681  0.059911  0.330533  0  .  1
   Na  Na30  1  0.928824  0.082245  0.689629  0  .  1
   Na  Na31  1  0.937050  0.727053  0.024690  0  .  1
   Na  Na32  1  0.987446  0.487956  0.273838  0  .  1
   Ti  Ti33  1  0.123548  0.780764  0.512365  0  .  1
   Ti  Ti34  1  0.376452  0.280764  0.012365  0  .  1
   Ti  Ti35  1  0.623548  0.719236  0.512365  0  .  1
   Ti  Ti36  1  0.876452  0.219236  0.012365  0  .  1
   O  O37  1  0.016816  0.789643  0.627819  0  .  1
   O  O38  1  0.120807  0.558201  0.396656  0  .  1
   O  O39  1  0.118369  0.709132  0.005469  0  .  1
   O  O40  1  0.126155  0.257561  0.758367  0  .  1
   O  O41  1  0.126154  0.007817  0.403439  0  .  1
   O  O42  1  0.234456  0.749836  0.616686  0  .  1
   O  O43  1  0.265544  0.249836  0.116686  0  .  1
   O  O44  1  0.373846  0.507817  0.903439  0  .  1
   O  O45  1  0.373845  0.757561  0.258367  0  .  1
   O  O46  1  0.381631  0.209132  0.505469  0  .  1
   O  O47  1  0.379192  0.058201  0.896656  0  .  1
   O  O48  1  0.483184  0.289643  0.127819  0  .  1
   O  O49  1  0.516816  0.710357  0.627819  0  .  1
   O  O50  1  0.620807  0.941799  0.396656  0  .  1
   O  O51  1  0.618369  0.790868  0.005469  0  .  1
   O  O52  1  0.626155  0.242439  0.758367  0  .  1
   O  O53  1  0.626154  0.492183  0.403439  0  .  1
   O  O54  1  0.734456  0.750164  0.616686  0  .  1
   O  O55  1  0.765544  0.250164  0.116686  0  .  1
   O  O56  1  0.873846  0.992183  0.903439  0  .  1
   O  O57  1  0.873845  0.742439  0.258367  0  .  1
   O  O58  1  0.881631  0.290868  0.505469  0  .  1
   O  O59  1  0.879193  0.441799  0.896656  0  .  1
   O  O60  1  0.983184  0.210357  0.127819  0  .  1
 
