#\#CIF1.1
##########################################################################
#               Crystallographic Information Format file 
#               Produced by PyCifRW module
# 
#  This is a CIF file.  CIF has been adopted by the International
#  Union of Crystallography as the standard for data archiving and 
#  transmission.
#
#  For information on this file format, follow the CIF links at
#  http://www.iucr.org
##########################################################################

data_Na8V2O7
_symmetry_space_group_name_H-M          'P 1'
_cell_length_a                          8.83079357485
_cell_length_b                          11.26064289
_cell_length_c                          10.2549776299
_cell_angle_alpha                       90.0
_cell_angle_beta                        107.32209394
_cell_angle_gamma                       90.0
_chemical_name_systematic               'Generated by pymatgen'
_symmetry_Int_Tables_number             1
_chemical_formula_structural            Na8V2O7
_chemical_formula_sum                   'Na32 V8 O28'
_cell_volume                            973.509108749
_cell_formula_units_Z                   4
loop_
  _symmetry_equiv_pos_site_id
  _symmetry_equiv_pos_as_xyz
   1  'x, y, z'
 
loop_
  _atom_site_type_symbol
  _atom_site_label
  _atom_site_symmetry_multiplicity
  _atom_site_fract_x
  _atom_site_fract_y
  _atom_site_fract_z
  _atom_site_attached_hydrogens
  _atom_site_B_iso_or_equiv
  _atom_site_occupancy
   Na  Na1  1  0.122526  0.475065  0.927326  0  .  1
   Na  Na2  1  0.082520  0.461533  0.642365  0  .  1
   Na  Na3  1  0.106054  0.740756  0.533101  0  .  1
   Na  Na4  1  0.122526  0.024935  0.427326  0  .  1
   Na  Na5  1  0.254139  0.947880  0.713764  0  .  1
   Na  Na6  1  0.082520  0.038467  0.142365  0  .  1
   Na  Na7  1  0.286513  0.250546  0.570782  0  .  1
   Na  Na8  1  0.106054  0.759244  0.033101  0  .  1
   Na  Na9  1  0.429819  0.469415  0.853852  0  .  1
   Na  Na10  1  0.341680  0.502577  0.520727  0  .  1
   Na  Na11  1  0.254139  0.552120  0.213764  0  .  1
   Na  Na12  1  0.500489  0.229861  0.872859  0  .  1
   Na  Na13  1  0.286513  0.249454  0.070782  0  .  1
   Na  Na14  1  0.499511  0.729861  0.627141  0  .  1
   Na  Na15  1  0.429819  0.030585  0.353852  0  .  1
   Na  Na16  1  0.658320  0.002577  0.979273  0  .  1
   Na  Na17  1  0.341680  0.997423  0.020727  0  .  1
   Na  Na18  1  0.570181  0.969415  0.646148  0  .  1
   Na  Na19  1  0.500489  0.270139  0.372859  0  .  1
   Na  Na20  1  0.713487  0.750546  0.929218  0  .  1
   Na  Na21  1  0.499511  0.770139  0.127141  0  .  1
   Na  Na22  1  0.745861  0.447880  0.786236  0  .  1
   Na  Na23  1  0.658320  0.497423  0.479273  0  .  1
   Na  Na24  1  0.570181  0.530585  0.146148  0  .  1
   Na  Na25  1  0.893946  0.240756  0.966899  0  .  1
   Na  Na26  1  0.713487  0.749454  0.429218  0  .  1
   Na  Na27  1  0.917480  0.961533  0.857635  0  .  1
   Na  Na28  1  0.745861  0.052120  0.286236  0  .  1
   Na  Na29  1  0.877474  0.975065  0.572674  0  .  1
   Na  Na30  1  0.893946  0.259244  0.466899  0  .  1
   Na  Na31  1  0.917480  0.538467  0.357635  0  .  1
   Na  Na32  1  0.877474  0.524935  0.072674  0  .  1
   V  V33  1  0.091689  0.202277  0.775227  0  .  1
   V  V34  1  0.091689  0.297723  0.275227  0  .  1
   V  V35  1  0.308062  0.714352  0.847153  0  .  1
   V  V36  1  0.308062  0.785648  0.347153  0  .  1
   V  V37  1  0.691938  0.214352  0.652847  0  .  1
   V  V38  1  0.691938  0.285648  0.152847  0  .  1
   V  V39  1  0.908312  0.702277  0.724773  0  .  1
   V  V40  1  0.908312  0.797723  0.224773  0  .  1
   O  O41  1  0.109733  0.110125  0.937064  0  .  1
   O  O42  1  0.103448  0.802384  0.780151  0  .  1
   O  O43  1  0.099545  0.110180  0.619864  0  .  1
   O  O44  1  0.109733  0.389875  0.437064  0  .  1
   O  O45  1  0.250031  0.325914  0.815648  0  .  1
   O  O46  1  0.103448  0.697616  0.280151  0  .  1
   O  O47  1  0.099545  0.389820  0.119864  0  .  1
   O  O48  1  0.318213  0.615826  0.697589  0  .  1
   O  O49  1  0.250031  0.174086  0.315648  0  .  1
   O  O50  1  0.456041  0.849541  0.895091  0  .  1
   O  O51  1  0.331033  0.884920  0.506673  0  .  1
   O  O52  1  0.318213  0.884174  0.197589  0  .  1
   O  O53  1  0.456041  0.650459  0.395091  0  .  1
   O  O54  1  0.668967  0.384920  0.993327  0  .  1
   O  O55  1  0.331033  0.615080  0.006673  0  .  1
   O  O56  1  0.543959  0.349541  0.604909  0  .  1
   O  O57  1  0.681787  0.115826  0.802411  0  .  1
   O  O58  1  0.668967  0.115080  0.493327  0  .  1
   O  O59  1  0.543959  0.150459  0.104909  0  .  1
   O  O60  1  0.749969  0.825914  0.684352  0  .  1
   O  O61  1  0.681787  0.384174  0.302411  0  .  1
   O  O62  1  0.900455  0.610180  0.880136  0  .  1
   O  O63  1  0.896552  0.302384  0.719849  0  .  1
   O  O64  1  0.749969  0.674086  0.184352  0  .  1
   O  O65  1  0.890267  0.610125  0.562936  0  .  1
   O  O66  1  0.900455  0.889820  0.380136  0  .  1
   O  O67  1  0.896552  0.197616  0.219849  0  .  1
   O  O68  1  0.890267  0.889875  0.062936  0  .  1
 
