#\#CIF1.1
##########################################################################
#               Crystallographic Information Format file 
#               Produced by PyCifRW module
# 
#  This is a CIF file.  CIF has been adopted by the International
#  Union of Crystallography as the standard for data archiving and 
#  transmission.
#
#  For information on this file format, follow the CIF links at
#  http://www.iucr.org
##########################################################################

data_Na9Cu2O7
_symmetry_space_group_name_H-M          'P 1'
_cell_length_a                          9.53569937
_cell_length_b                          9.92635497
_cell_length_c                          10.2199853
_cell_angle_alpha                       90.0
_cell_angle_beta                        90.0
_cell_angle_gamma                       90.0
_chemical_name_systematic               'Generated by pymatgen'
_symmetry_Int_Tables_number             1
_chemical_formula_structural            Na9Cu2O7
_chemical_formula_sum                   'Na36 Cu8 O28'
_cell_volume                            967.370019017
_cell_formula_units_Z                   4
loop_
  _symmetry_equiv_pos_site_id
  _symmetry_equiv_pos_as_xyz
   1  'x, y, z'
 
loop_
  _atom_site_type_symbol
  _atom_site_label
  _atom_site_symmetry_multiplicity
  _atom_site_fract_x
  _atom_site_fract_y
  _atom_site_fract_z
  _atom_site_attached_hydrogens
  _atom_site_B_iso_or_equiv
  _atom_site_occupancy
   Na  Na1  1  0.013390  0.743439  0.130734  0  .  1
   Na  Na2  1  0.020541  0.162467  0.884869  0  .  1
   Na  Na3  1  0.070502  0.667499  0.856713  0  .  1
   Na  Na4  1  0.072054  0.045547  0.153036  0  .  1
   Na  Na5  1  0.089072  0.514130  0.590542  0  .  1
   Na  Na6  1  0.154317  0.553975  0.297876  0  .  1
   Na  Na7  1  0.164022  0.107848  0.482485  0  .  1
   Na  Na8  1  0.213752  0.773862  0.556213  0  .  1
   Na  Na9  1  0.223728  0.288954  0.227004  0  .  1
   Na  Na10  1  0.276272  0.288954  0.727004  0  .  1
   Na  Na11  1  0.286248  0.773862  0.056213  0  .  1
   Na  Na12  1  0.335978  0.107848  0.982485  0  .  1
   Na  Na13  1  0.345683  0.553975  0.797876  0  .  1
   Na  Na14  1  0.410928  0.514130  0.090541  0  .  1
   Na  Na15  1  0.427946  0.045547  0.653036  0  .  1
   Na  Na16  1  0.429498  0.667499  0.356713  0  .  1
   Na  Na17  1  0.479459  0.162467  0.384869  0  .  1
   Na  Na18  1  0.486611  0.743439  0.630734  0  .  1
   Na  Na19  1  0.513390  0.256561  0.130734  0  .  1
   Na  Na20  1  0.520541  0.837533  0.884869  0  .  1
   Na  Na21  1  0.570502  0.332501  0.856713  0  .  1
   Na  Na22  1  0.572054  0.954453  0.153036  0  .  1
   Na  Na23  1  0.589072  0.485870  0.590542  0  .  1
   Na  Na24  1  0.654317  0.446025  0.297876  0  .  1
   Na  Na25  1  0.664022  0.892152  0.482485  0  .  1
   Na  Na26  1  0.713752  0.226138  0.556213  0  .  1
   Na  Na27  1  0.723728  0.711046  0.227004  0  .  1
   Na  Na28  1  0.776272  0.711046  0.727004  0  .  1
   Na  Na29  1  0.786248  0.226138  0.056213  0  .  1
   Na  Na30  1  0.835978  0.892152  0.982485  0  .  1
   Na  Na31  1  0.845683  0.446025  0.797876  0  .  1
   Na  Na32  1  0.910928  0.485870  0.090541  0  .  1
   Na  Na33  1  0.927946  0.954453  0.653036  0  .  1
   Na  Na34  1  0.929498  0.332501  0.356713  0  .  1
   Na  Na35  1  0.979459  0.837533  0.384869  0  .  1
   Na  Na36  1  0.986610  0.256561  0.630734  0  .  1
   Cu  Cu37  1  0.155361  0.395881  0.973895  0  .  1
   Cu  Cu38  1  0.189529  0.932991  0.805982  0  .  1
   Cu  Cu39  1  0.310471  0.932991  0.305982  0  .  1
   Cu  Cu40  1  0.344639  0.395881  0.473895  0  .  1
   Cu  Cu41  1  0.655361  0.604119  0.973895  0  .  1
   Cu  Cu42  1  0.689529  0.067009  0.805982  0  .  1
   Cu  Cu43  1  0.810471  0.067009  0.305982  0  .  1
   Cu  Cu44  1  0.844639  0.604119  0.473895  0  .  1
   O  O45  1  0.032757  0.276476  0.086005  0  .  1
   O  O46  1  0.082835  0.922621  0.964041  0  .  1
   O  O47  1  0.094794  0.426047  0.797309  0  .  1
   O  O48  1  0.154700  0.336878  0.444362  0  .  1
   O  O49  1  0.153984  0.086918  0.707440  0  .  1
   O  O50  1  0.162960  0.566615  0.061786  0  .  1
   O  O51  1  0.197418  0.782877  0.297572  0  .  1
   O  O52  1  0.302582  0.782877  0.797572  0  .  1
   O  O53  1  0.337040  0.566615  0.561786  0  .  1
   O  O54  1  0.346016  0.086918  0.207440  0  .  1
   O  O55  1  0.345300  0.336878  0.944362  0  .  1
   O  O56  1  0.405206  0.426047  0.297309  0  .  1
   O  O57  1  0.417165  0.922621  0.464041  0  .  1
   O  O58  1  0.467243  0.276476  0.586005  0  .  1
   O  O59  1  0.532757  0.723524  0.086005  0  .  1
   O  O60  1  0.582835  0.077379  0.964041  0  .  1
   O  O61  1  0.594794  0.573953  0.797309  0  .  1
   O  O62  1  0.654700  0.663122  0.444362  0  .  1
   O  O63  1  0.653984  0.913082  0.707440  0  .  1
   O  O64  1  0.662960  0.433385  0.061786  0  .  1
   O  O65  1  0.697418  0.217123  0.297572  0  .  1
   O  O66  1  0.802582  0.217123  0.797572  0  .  1
   O  O67  1  0.837040  0.433385  0.561786  0  .  1
   O  O68  1  0.846016  0.913082  0.207440  0  .  1
   O  O69  1  0.845300  0.663122  0.944362  0  .  1
   O  O70  1  0.905206  0.573953  0.297309  0  .  1
   O  O71  1  0.917165  0.077379  0.464041  0  .  1
   O  O72  1  0.967243  0.723524  0.586005  0  .  1
 
