#\#CIF1.1
##########################################################################
#               Crystallographic Information Format file 
#               Produced by PyCifRW module
# 
#  This is a CIF file.  CIF has been adopted by the International
#  Union of Crystallography as the standard for data archiving and 
#  transmission.
#
#  For information on this file format, follow the CIF links at
#  http://www.iucr.org
##########################################################################

data_Na9Ni7O16
_symmetry_space_group_name_H-M          'P 1'
_cell_length_a                          7.92425617164
_cell_length_b                          6.97632243813
_cell_length_c                          6.89999758136
_cell_angle_alpha                       69.4924532046
_cell_angle_beta                        77.0398214903
_cell_angle_gamma                       65.6576382945
_chemical_name_systematic               'Generated by pymatgen'
_symmetry_Int_Tables_number             1
_chemical_formula_structural            Na9Ni7O16
_chemical_formula_sum                   'Na9 Ni7 O16'
_cell_volume                            324.08208036
_cell_formula_units_Z                   1
loop_
  _symmetry_equiv_pos_site_id
  _symmetry_equiv_pos_as_xyz
   1  'x, y, z'
 
loop_
  _atom_site_type_symbol
  _atom_site_label
  _atom_site_symmetry_multiplicity
  _atom_site_fract_x
  _atom_site_fract_y
  _atom_site_fract_z
  _atom_site_attached_hydrogens
  _atom_site_B_iso_or_equiv
  _atom_site_occupancy
   Na  Na1  1  0.062532  0.313824  0.202317  0  .  1
   Na  Na2  1  0.443453  0.189565  0.311069  0  .  1
   Na  Na3  1  0.306547  0.560435  0.938931  0  .  1
   Na  Na4  1  0.183558  0.945740  0.571057  0  .  1
   Na  Na5  1  0.807535  0.078236  0.438530  0  .  1
   Na  Na6  1  0.687468  0.436176  0.047683  0  .  1
   Na  Na7  1  0.875000  0.375000  0.625000  0  .  1
   Na  Na8  1  0.566442  0.804260  0.678943  0  .  1
   Na  Na9  1  0.942465  0.671764  0.811470  0  .  1
   Ni  Ni10  1  0.005258  0.992515  0.003874  0  .  1
   Ni  Ni11  1  0.257476  0.241616  0.752057  0  .  1
   Ni  Ni12  1  0.125652  0.631255  0.373175  0  .  1
   Ni  Ni13  1  0.624348  0.118745  0.876825  0  .  1
   Ni  Ni14  1  0.492524  0.508384  0.497943  0  .  1
   Ni  Ni15  1  0.375000  0.875000  0.125000  0  .  1
   Ni  Ni16  1  0.744742  0.757485  0.246126  0  .  1
   O  O17  1  0.166427  0.321672  0.482523  0  .  1
   O  O18  1  0.233873  0.578979  0.617842  0  .  1
   O  O19  1  0.026908  0.684416  0.122224  0  .  1
   O  O20  1  0.516127  0.171021  0.632158  0  .  1
   O  O21  1  0.368857  0.183326  0.000519  0  .  1
   O  O22  1  0.723092  0.065584  0.127776  0  .  1
   O  O23  1  0.103606  0.935379  0.259619  0  .  1
   O  O24  1  0.381143  0.566674  0.249481  0  .  1
   O  O25  1  0.883318  0.030421  0.768648  0  .  1
   O  O26  1  0.583573  0.428328  0.767477  0  .  1
   O  O27  1  0.284662  0.912392  0.877058  0  .  1
   O  O28  1  0.465338  0.837608  0.372942  0  .  1
   O  O29  1  0.646394  0.814621  0.990381  0  .  1
   O  O30  1  0.012176  0.288497  0.905885  0  .  1
   O  O31  1  0.737824  0.461503  0.344115  0  .  1
   O  O32  1  0.866682  0.719579  0.481352  0  .  1
 
