#\#CIF1.1
##########################################################################
#               Crystallographic Information Format file 
#               Produced by PyCifRW module
# 
#  This is a CIF file.  CIF has been adopted by the International
#  Union of Crystallography as the standard for data archiving and 
#  transmission.
#
#  For information on this file format, follow the CIF links at
#  http://www.iucr.org
##########################################################################

data_NaCo11O17
_symmetry_space_group_name_H-M          'P 1'
_cell_length_a                          5.71742459108
_cell_length_b                          5.71761144279
_cell_length_c                          23.0049772894
_cell_angle_alpha                       89.9843801537
_cell_angle_beta                        90.0130461821
_cell_angle_gamma                       119.993331617
_chemical_name_systematic               'Generated by pymatgen'
_symmetry_Int_Tables_number             1
_chemical_formula_structural            NaCo11O17
_chemical_formula_sum                   'Na2 Co22 O34'
_cell_volume                            651.323404141
_cell_formula_units_Z                   2
loop_
  _symmetry_equiv_pos_site_id
  _symmetry_equiv_pos_as_xyz
   1  'x, y, z'
 
loop_
  _atom_site_type_symbol
  _atom_site_label
  _atom_site_symmetry_multiplicity
  _atom_site_fract_x
  _atom_site_fract_y
  _atom_site_fract_z
  _atom_site_attached_hydrogens
  _atom_site_B_iso_or_equiv
  _atom_site_occupancy
   Na  Na1  1  0.333456  0.666600  0.749870  0  .  1
   Na  Na2  1  0.666636  0.333248  0.249939  0  .  1
   Co  Co3  1  0.164606  0.835399  0.602832  0  .  1
   Co  Co4  1  0.164489  0.835542  0.896996  0  .  1
   Co  Co5  1  0.333361  0.666570  0.172093  0  .  1
   Co  Co6  1  0.333342  0.666722  0.024256  0  .  1
   Co  Co7  1  0.999988  0.000048  0.000002  0  .  1
   Co  Co8  1  0.000057  0.999952  0.499990  0  .  1
   Co  Co9  1  0.333290  0.666676  0.327705  0  .  1
   Co  Co10  1  0.333366  0.666586  0.475518  0  .  1
   Co  Co11  1  0.164719  0.329030  0.602949  0  .  1
   Co  Co12  1  0.164501  0.329269  0.897015  0  .  1
   Co  Co13  1  0.329244  0.164572  0.103041  0  .  1
   Co  Co14  1  0.329051  0.164564  0.396970  0  .  1
   Co  Co15  1  0.670982  0.835292  0.602944  0  .  1
   Co  Co16  1  0.670760  0.835527  0.897016  0  .  1
   Co  Co17  1  0.835341  0.670860  0.396972  0  .  1
   Co  Co18  1  0.835460  0.670783  0.103050  0  .  1
   Co  Co19  1  0.666761  0.333201  0.672519  0  .  1
   Co  Co20  1  0.666634  0.333424  0.828260  0  .  1
   Co  Co21  1  0.666952  0.333106  0.524277  0  .  1
   Co  Co22  1  0.666628  0.333356  0.975794  0  .  1
   Co  Co23  1  0.835317  0.164575  0.396972  0  .  1
   Co  Co24  1  0.835458  0.164576  0.103049  0  .  1
   O  O25  1  0.148409  0.851654  0.053690  0  .  1
   O  O26  1  0.984996  0.492606  0.353267  0  .  1
   O  O27  1  0.014678  0.507591  0.646571  0  .  1
   O  O28  1  0.984666  0.492187  0.146900  0  .  1
   O  O29  1  0.148275  0.851663  0.446311  0  .  1
   O  O30  1  0.015438  0.507965  0.853228  0  .  1
   O  O31  1  0.148275  0.296584  0.446293  0  .  1
   O  O32  1  0.333438  0.666896  0.250097  0  .  1
   O  O33  1  0.000095  0.999911  0.144556  0  .  1
   O  O34  1  0.999903  0.000075  0.355401  0  .  1
   O  O35  1  0.000178  0.999777  0.644488  0  .  1
   O  O36  1  0.999869  0.000178  0.855484  0  .  1
   O  O37  1  0.333617  0.666401  0.559569  0  .  1
   O  O38  1  0.333260  0.666737  0.940328  0  .  1
   O  O39  1  0.148356  0.296754  0.053669  0  .  1
   O  O40  1  0.296951  0.148428  0.553621  0  .  1
   O  O41  1  0.296675  0.148379  0.946381  0  .  1
   O  O42  1  0.507610  0.492375  0.146798  0  .  1
   O  O43  1  0.507613  0.492239  0.353111  0  .  1
   O  O44  1  0.492589  0.507418  0.646840  0  .  1
   O  O45  1  0.492393  0.507680  0.853424  0  .  1
   O  O46  1  0.703305  0.851700  0.053671  0  .  1
   O  O47  1  0.703384  0.851676  0.446292  0  .  1
   O  O48  1  0.507718  0.015158  0.146835  0  .  1
   O  O49  1  0.507436  0.015248  0.353170  0  .  1
   O  O50  1  0.492359  0.985223  0.646601  0  .  1
   O  O51  1  0.666621  0.333308  0.440281  0  .  1
   O  O52  1  0.492072  0.984561  0.853210  0  .  1
   O  O53  1  0.666078  0.333911  0.750117  0  .  1
   O  O54  1  0.666705  0.333385  0.059764  0  .  1
   O  O55  1  0.851638  0.703347  0.946391  0  .  1
   O  O56  1  0.851635  0.703108  0.553614  0  .  1
   O  O57  1  0.851536  0.148463  0.946355  0  .  1
   O  O58  1  0.851931  0.148140  0.553645  0  .  1
 
