#\#CIF1.1
##########################################################################
#               Crystallographic Information Format file 
#               Produced by PyCifRW module
# 
#  This is a CIF file.  CIF has been adopted by the International
#  Union of Crystallography as the standard for data archiving and 
#  transmission.
#
#  For information on this file format, follow the CIF links at
#  http://www.iucr.org
##########################################################################

data_NaCo3O4
_symmetry_space_group_name_H-M          'P 1'
_cell_length_a                          6.06575930153
_cell_length_b                          6.06481202228
_cell_length_c                          8.64866361135
_cell_angle_alpha                       90.0644917751
_cell_angle_beta                        89.9279226573
_cell_angle_gamma                       89.9807666458
_chemical_name_systematic               'Generated by pymatgen'
_symmetry_Int_Tables_number             1
_chemical_formula_structural            NaCo3O4
_chemical_formula_sum                   'Na4 Co12 O16'
_cell_volume                            318.163883916
_cell_formula_units_Z                   4
loop_
  _symmetry_equiv_pos_site_id
  _symmetry_equiv_pos_as_xyz
   1  'x, y, z'
 
loop_
  _atom_site_type_symbol
  _atom_site_label
  _atom_site_symmetry_multiplicity
  _atom_site_fract_x
  _atom_site_fract_y
  _atom_site_fract_z
  _atom_site_attached_hydrogens
  _atom_site_B_iso_or_equiv
  _atom_site_occupancy
   Na  Na1  1  0.255799  0.499951  0.750039  0  .  1
   Na  Na2  1  0.500101  0.255705  0.000068  0  .  1
   Na  Na3  1  0.500010  0.744322  0.500003  0  .  1
   Na  Na4  1  0.744244  0.500001  0.250022  0  .  1
   Co  Co5  1  0.000179  0.251451  0.000154  0  .  1
   Co  Co6  1  0.000550  0.750918  0.000065  0  .  1
   Co  Co7  1  0.000161  0.250036  0.499934  0  .  1
   Co  Co8  1  0.999969  0.748046  0.499886  0  .  1
   Co  Co9  1  0.239170  0.500127  0.249776  0  .  1
   Co  Co10  1  0.251322  0.999843  0.749807  0  .  1
   Co  Co11  1  0.249795  0.000015  0.249983  0  .  1
   Co  Co12  1  0.499940  0.238831  0.500216  0  .  1
   Co  Co13  1  0.500129  0.760329  0.999814  0  .  1
   Co  Co14  1  0.751476  0.000041  0.749937  0  .  1
   Co  Co15  1  0.747986  0.999955  0.250139  0  .  1
   Co  Co16  1  0.760753  0.500129  0.750448  0  .  1
   O  O17  1  0.977368  0.229028  0.756958  0  .  1
   O  O18  1  0.981771  0.775342  0.742923  0  .  1
   O  O19  1  0.224730  0.521970  0.020120  0  .  1
   O  O20  1  0.224236  0.478167  0.479711  0  .  1
   O  O21  1  0.227836  0.978915  0.992914  0  .  1
   O  O22  1  0.227847  0.021556  0.506341  0  .  1
   O  O23  1  0.520562  0.223372  0.729797  0  .  1
   O  O24  1  0.525140  0.772242  0.770219  0  .  1
   O  O25  1  0.478191  0.224638  0.270423  0  .  1
   O  O26  1  0.475625  0.773129  0.229619  0  .  1
   O  O27  1  0.774415  0.019121  0.493217  0  .  1
   O  O28  1  0.773868  0.980844  0.007253  0  .  1
   O  O29  1  0.773357  0.523865  0.979851  0  .  1
   O  O30  1  0.772980  0.475725  0.520416  0  .  1
   O  O31  1  0.021429  0.228265  0.243347  0  .  1
   O  O32  1  0.019063  0.774120  0.256597  0  .  1
 
