#\#CIF1.1
##########################################################################
#               Crystallographic Information Format file 
#               Produced by PyCifRW module
# 
#  This is a CIF file.  CIF has been adopted by the International
#  Union of Crystallography as the standard for data archiving and 
#  transmission.
#
#  For information on this file format, follow the CIF links at
#  http://www.iucr.org
##########################################################################

data_NaCrO2
_symmetry_space_group_name_H-M          'P 1'
_cell_length_a                          5.6478458043
_cell_length_b                          5.64784531524
_cell_length_c                          5.64784586064
_cell_angle_alpha                       31.3028087061
_cell_angle_beta                        31.3028157404
_cell_angle_gamma                       31.3028157651
_chemical_name_systematic               'Generated by pymatgen'
_symmetry_Int_Tables_number             1
_chemical_formula_structural            NaCrO2
_chemical_formula_sum                   'Na1 Cr1 O2'
_cell_volume                            43.1622675478
_cell_formula_units_Z                   1
loop_
  _symmetry_equiv_pos_site_id
  _symmetry_equiv_pos_as_xyz
   1  'x, y, z'
 
loop_
  _atom_site_type_symbol
  _atom_site_label
  _atom_site_symmetry_multiplicity
  _atom_site_fract_x
  _atom_site_fract_y
  _atom_site_fract_z
  _atom_site_attached_hydrogens
  _atom_site_B_iso_or_equiv
  _atom_site_occupancy
   Na  Na1  1  0.500000  0.500000  0.500000  0  .  1
   Cr  Cr2  1  0.000000  0.000000  0.000000  0  .  1
   O  O3  1  0.267441  0.267441  0.267441  0  .  1
   O  O4  1  0.732559  0.732559  0.732559  0  .  1
 
