#\#CIF1.1
##########################################################################
#               Crystallographic Information Format file 
#               Produced by PyCifRW module
# 
#  This is a CIF file.  CIF has been adopted by the International
#  Union of Crystallography as the standard for data archiving and 
#  transmission.
#
#  For information on this file format, follow the CIF links at
#  http://www.iucr.org
##########################################################################

data_NaCuO2
_symmetry_space_group_name_H-M          'P 1'
_cell_length_a                          5.55500232368
_cell_length_b                          5.55500184279
_cell_length_c                          5.55500237618
_cell_angle_alpha                       31.7598921837
_cell_angle_beta                        31.7598993804
_cell_angle_gamma                       31.7598993612
_chemical_name_systematic               'Generated by pymatgen'
_symmetry_Int_Tables_number             1
_chemical_formula_structural            NaCuO2
_chemical_formula_sum                   'Na1 Cu1 O2'
_cell_volume                            42.1803929802
_cell_formula_units_Z                   1
loop_
  _symmetry_equiv_pos_site_id
  _symmetry_equiv_pos_as_xyz
   1  'x, y, z'
 
loop_
  _atom_site_type_symbol
  _atom_site_label
  _atom_site_symmetry_multiplicity
  _atom_site_fract_x
  _atom_site_fract_y
  _atom_site_fract_z
  _atom_site_attached_hydrogens
  _atom_site_B_iso_or_equiv
  _atom_site_occupancy
   Na  Na1  1  0.500000  0.500000  0.500000  0  .  1
   Cu  Cu2  1  0.000000  0.000000  0.000000  0  .  1
   O  O3  1  0.266574  0.266574  0.266574  0  .  1
   O  O4  1  0.733426  0.733426  0.733426  0  .  1
 
