#\#CIF1.1
##########################################################################
#               Crystallographic Information Format file 
#               Produced by PyCifRW module
# 
#  This is a CIF file.  CIF has been adopted by the International
#  Union of Crystallography as the standard for data archiving and 
#  transmission.
#
#  For information on this file format, follow the CIF links at
#  http://www.iucr.org
##########################################################################

data_NaCu5S3
_symmetry_space_group_name_H-M          'P 1'
_cell_length_a                          7.17752811
_cell_length_b                          7.17752811281
_cell_length_c                          6.96775353
_cell_angle_alpha                       90.0
_cell_angle_beta                        90.0
_cell_angle_gamma                       120.000000033
_chemical_name_systematic               'Generated by pymatgen'
_symmetry_Int_Tables_number             1
_chemical_formula_structural            NaCu5S3
_chemical_formula_sum                   'Na2 Cu10 S6'
_cell_volume                            310.865993384
_cell_formula_units_Z                   2
loop_
  _symmetry_equiv_pos_site_id
  _symmetry_equiv_pos_as_xyz
   1  'x, y, z'
 
loop_
  _atom_site_type_symbol
  _atom_site_label
  _atom_site_symmetry_multiplicity
  _atom_site_fract_x
  _atom_site_fract_y
  _atom_site_fract_z
  _atom_site_attached_hydrogens
  _atom_site_B_iso_or_equiv
  _atom_site_occupancy
   Na  Na1  1  0.000000  0.000000  0.250000  0  .  1
   Na  Na2  1  0.000000  0.000000  0.750000  0  .  1
   S  S3  1  0.655744  0.000000  0.000000  0  .  1
   S  S4  1  0.000000  0.344256  0.500000  0  .  1
   S  S5  1  0.344256  0.000000  0.500000  0  .  1
   S  S6  1  0.000000  0.655744  0.000000  0  .  1
   S  S7  1  0.655744  0.655744  0.500000  0  .  1
   S  S8  1  0.344256  0.344256  0.000000  0  .  1
   Cu  Cu9  1  0.433534  0.216767  0.750000  0  .  1
   Cu  Cu10  1  0.666667  0.333333  0.054686  0  .  1
   Cu  Cu11  1  0.333333  0.666667  0.945314  0  .  1
   Cu  Cu12  1  0.666667  0.333333  0.445314  0  .  1
   Cu  Cu13  1  0.216767  0.433534  0.250000  0  .  1
   Cu  Cu14  1  0.216767  0.783233  0.250000  0  .  1
   Cu  Cu15  1  0.783233  0.216767  0.750000  0  .  1
   Cu  Cu16  1  0.783233  0.566466  0.750000  0  .  1
   Cu  Cu17  1  0.566466  0.783233  0.250000  0  .  1
   Cu  Cu18  1  0.333333  0.666667  0.554686  0  .  1
 
