#\#CIF1.1
##########################################################################
#               Crystallographic Information Format file 
#               Produced by PyCifRW module
# 
#  This is a CIF file.  CIF has been adopted by the International
#  Union of Crystallography as the standard for data archiving and 
#  transmission.
#
#  For information on this file format, follow the CIF links at
#  http://www.iucr.org
##########################################################################

data_NaFe2O3
_symmetry_space_group_name_H-M          'P 1'
_cell_length_a                          3.11211563
_cell_length_b                          3.11211562309
_cell_length_c                          7.82908768
_cell_angle_alpha                       90.0
_cell_angle_beta                        90.0
_cell_angle_gamma                       119.999999967
_chemical_name_systematic               'Generated by pymatgen'
_symmetry_Int_Tables_number             1
_chemical_formula_structural            NaFe2O3
_chemical_formula_sum                   'Na1 Fe2 O3'
_cell_volume                            65.6679164896
_cell_formula_units_Z                   1
loop_
  _symmetry_equiv_pos_site_id
  _symmetry_equiv_pos_as_xyz
   1  'x, y, z'
 
loop_
  _atom_site_type_symbol
  _atom_site_label
  _atom_site_symmetry_multiplicity
  _atom_site_fract_x
  _atom_site_fract_y
  _atom_site_fract_z
  _atom_site_attached_hydrogens
  _atom_site_B_iso_or_equiv
  _atom_site_occupancy
   O  O1  1  0.666667  0.333333  0.293157  0  .  1
   O  O2  1  0.333333  0.666665  0.706843  0  .  1
   O  O3  1  0.000000  0.000000  0.000000  0  .  1
   Na  Na4  1  0.000000  0.000000  0.500000  0  .  1
   Fe  Fe5  1  0.666667  0.333333  0.833152  0  .  1
   Fe  Fe6  1  0.333333  0.666665  0.166849  0  .  1
 
