#\#CIF1.1
##########################################################################
#               Crystallographic Information Format file 
#               Produced by PyCifRW module
# 
#  This is a CIF file.  CIF has been adopted by the International
#  Union of Crystallography as the standard for data archiving and 
#  transmission.
#
#  For information on this file format, follow the CIF links at
#  http://www.iucr.org
##########################################################################

data_NaFeO2
_symmetry_space_group_name_H-M          'P 1'
_cell_length_a                          5.71256753311
_cell_length_b                          5.71256753612
_cell_length_c                          5.71256753716
_cell_angle_alpha                       31.0736450806
_cell_angle_beta                        31.0736450327
_cell_angle_gamma                       31.0736450931
_chemical_name_systematic               'Generated by pymatgen'
_symmetry_Int_Tables_number             1
_chemical_formula_structural            NaFeO2
_chemical_formula_sum                   'Na1 Fe1 O2'
_cell_volume                            44.0613384777
_cell_formula_units_Z                   1
loop_
  _symmetry_equiv_pos_site_id
  _symmetry_equiv_pos_as_xyz
   1  'x, y, z'
 
loop_
  _atom_site_type_symbol
  _atom_site_label
  _atom_site_symmetry_multiplicity
  _atom_site_fract_x
  _atom_site_fract_y
  _atom_site_fract_z
  _atom_site_attached_hydrogens
  _atom_site_B_iso_or_equiv
  _atom_site_occupancy
   O  O1  1  0.766185  0.766185  0.766185  0  .  1
   O  O2  1  0.233815  0.233815  0.233815  0  .  1
   Na  Na3  1  0.000000  0.000000  0.000000  0  .  1
   Fe  Fe4  1  0.500000  0.500000  0.500000  0  .  1
 
