#\#CIF1.1
##########################################################################
#               Crystallographic Information Format file 
#               Produced by PyCifRW module
# 
#  This is a CIF file.  CIF has been adopted by the International
#  Union of Crystallography as the standard for data archiving and 
#  transmission.
#
#  For information on this file format, follow the CIF links at
#  http://www.iucr.org
##########################################################################

data_NaLaTiO4
_symmetry_space_group_name_H-M          'P 1'
_cell_length_a                          3.7882436
_cell_length_b                          3.7882436
_cell_length_c                          13.2104207
_cell_angle_alpha                       90.0
_cell_angle_beta                        90.0
_cell_angle_gamma                       90.0
_chemical_name_systematic               'Generated by pymatgen'
_symmetry_Int_Tables_number             1
_chemical_formula_structural            NaLaTiO4
_chemical_formula_sum                   'Na2 La2 Ti2 O8'
_cell_volume                            189.579967636
_cell_formula_units_Z                   2
loop_
  _symmetry_equiv_pos_site_id
  _symmetry_equiv_pos_as_xyz
   1  'x, y, z'
 
loop_
  _atom_site_type_symbol
  _atom_site_label
  _atom_site_symmetry_multiplicity
  _atom_site_fract_x
  _atom_site_fract_y
  _atom_site_fract_z
  _atom_site_attached_hydrogens
  _atom_site_B_iso_or_equiv
  _atom_site_occupancy
   O  O1  1  0.750000  0.750000  0.930697  0  .  1
   O  O2  1  0.250000  0.250000  0.069303  0  .  1
   O  O3  1  0.750000  0.750000  0.591876  0  .  1
   O  O4  1  0.250000  0.250000  0.408124  0  .  1
   O  O5  1  0.750000  0.250000  0.238669  0  .  1
   O  O6  1  0.250000  0.750000  0.238669  0  .  1
   O  O7  1  0.750000  0.250000  0.761331  0  .  1
   O  O8  1  0.250000  0.750000  0.761331  0  .  1
   Na  Na9  1  0.250000  0.250000  0.583307  0  .  1
   Na  Na10  1  0.750000  0.750000  0.416693  0  .  1
   Ti  Ti11  1  0.250000  0.250000  0.274962  0  .  1
   Ti  Ti12  1  0.750000  0.750000  0.725038  0  .  1
   La  La13  1  0.750000  0.750000  0.109194  0  .  1
   La  La14  1  0.250000  0.250000  0.890806  0  .  1
 
