#\#CIF1.1
##########################################################################
#               Crystallographic Information Format file 
#               Produced by PyCifRW module
# 
#  This is a CIF file.  CIF has been adopted by the International
#  Union of Crystallography as the standard for data archiving and 
#  transmission.
#
#  For information on this file format, follow the CIF links at
#  http://www.iucr.org
##########################################################################

data_NaMn10O20
_symmetry_space_group_name_H-M          'P 1'
_cell_length_a                          10.2220494022
_cell_length_b                          8.34572018
_cell_length_c                          10.2220494022
_cell_angle_alpha                       114.093159541
_cell_angle_beta                        80.4072039741
_cell_angle_gamma                       114.093159541
_chemical_name_systematic               'Generated by pymatgen'
_symmetry_Int_Tables_number             1
_chemical_formula_structural            NaMn10O20
_chemical_formula_sum                   'Na2 Mn20 O40'
_cell_volume                            726.724721457
_cell_formula_units_Z                   2
loop_
  _symmetry_equiv_pos_site_id
  _symmetry_equiv_pos_as_xyz
   1  'x, y, z'
 
loop_
  _atom_site_type_symbol
  _atom_site_label
  _atom_site_symmetry_multiplicity
  _atom_site_fract_x
  _atom_site_fract_y
  _atom_site_fract_z
  _atom_site_attached_hydrogens
  _atom_site_B_iso_or_equiv
  _atom_site_occupancy
   Na  Na1  1  0.050000  0.075000  0.850000  0  .  1
   Na  Na2  1  0.550000  0.325000  0.350000  0  .  1
   Mn  Mn3  1  0.100389  0.403396  0.698272  0  .  1
   Mn  Mn4  1  0.999525  0.999362  0.496219  0  .  1
   Mn  Mn5  1  0.201728  0.796993  0.900389  0  .  1
   Mn  Mn6  1  0.300000  0.200000  0.600000  0  .  1
   Mn  Mn7  1  0.196219  0.299837  0.400475  0  .  1
   Mn  Mn8  1  0.403781  0.100163  0.799525  0  .  1
   Mn  Mn9  1  0.999610  0.504735  0.001728  0  .  1
   Mn  Mn10  1  0.100475  0.403617  0.203781  0  .  1
   Mn  Mn11  1  0.300000  0.200000  0.100000  0  .  1
   Mn  Mn12  1  0.696219  0.796858  0.900475  0  .  1
   Mn  Mn13  1  0.600475  0.400638  0.703781  0  .  1
   Mn  Mn14  1  0.499611  0.996604  0.501728  0  .  1
   Mn  Mn15  1  0.398272  0.603007  0.299611  0  .  1
   Mn  Mn16  1  0.499525  0.996383  0.996219  0  .  1
   Mn  Mn17  1  0.898272  0.594876  0.799611  0  .  1
   Mn  Mn18  1  0.701728  0.805124  0.400390  0  .  1
   Mn  Mn19  1  0.800000  0.700000  0.600000  0  .  1
   Mn  Mn20  1  0.600390  0.895265  0.198272  0  .  1
   Mn  Mn21  1  0.903781  0.603142  0.299525  0  .  1
   Mn  Mn22  1  0.800000  0.200000  0.100000  0  .  1
   O  O23  1  0.006566  0.728665  0.980298  0  .  1
   O  O24  1  0.093434  0.641801  0.719702  0  .  1
   O  O25  1  0.180298  0.551633  0.893434  0  .  1
   O  O26  1  0.224199  0.044781  0.907196  0  .  1
   O  O27  1  0.107197  0.162415  0.675801  0  .  1
   O  O28  1  0.018027  0.247664  0.504949  0  .  1
   O  O29  1  0.395051  0.870362  0.818027  0  .  1
   O  O30  1  0.281375  0.421788  0.591515  0  .  1
   O  O31  1  0.194524  0.073735  0.417560  0  .  1
   O  O32  1  0.081973  0.624688  0.195051  0  .  1
   O  O33  1  0.482440  0.220789  0.994524  0  .  1
   O  O34  1  0.405476  0.326265  0.782440  0  .  1
   O  O35  1  0.204949  0.529638  0.381973  0  .  1
   O  O36  1  0.318625  0.978213  0.608485  0  .  1
   O  O37  1  0.117560  0.179211  0.205476  0  .  1
   O  O38  1  0.581973  0.152336  0.695051  0  .  1
   O  O39  1  0.492803  0.237585  0.524199  0  .  1
   O  O40  1  0.375801  0.355219  0.292803  0  .  1
   O  O41  1  0.291515  0.440414  0.118625  0  .  1
   O  O42  1  0.694524  0.038348  0.917560  0  .  1
   O  O43  1  0.617560  0.643825  0.705476  0  .  1
   O  O44  1  0.506566  0.758199  0.480298  0  .  1
   O  O45  1  0.704949  0.557285  0.881973  0  .  1
   O  O46  1  0.419702  0.848367  0.306566  0  .  1
   O  O47  1  0.308485  0.959586  0.081375  0  .  1
   O  O48  1  0.791515  0.469728  0.618625  0  .  1
   O  O49  1  0.875801  0.813386  0.792803  0  .  1
   O  O50  1  0.593434  0.671335  0.219702  0  .  1
   O  O51  1  0.680298  0.022099  0.393434  0  .  1
   O  O52  1  0.607197  0.120582  0.175801  0  .  1
   O  O53  1  0.808485  0.930272  0.581375  0  .  1
   O  O54  1  0.919702  0.377901  0.806566  0  .  1
   O  O55  1  0.724199  0.586614  0.407196  0  .  1
   O  O56  1  0.518027  0.775312  0.004949  0  .  1
   O  O57  1  0.781375  0.951103  0.091515  0  .  1
   O  O58  1  0.895051  0.842715  0.318027  0  .  1
   O  O59  1  0.982440  0.756175  0.494524  0  .  1
   O  O60  1  0.905476  0.361652  0.282440  0  .  1
   O  O61  1  0.818625  0.448898  0.108485  0  .  1
   O  O62  1  0.992804  0.279418  0.024199  0  .  1
 
