#\#CIF1.1
##########################################################################
#               Crystallographic Information Format file 
#               Produced by PyCifRW module
# 
#  This is a CIF file.  CIF has been adopted by the International
#  Union of Crystallography as the standard for data archiving and 
#  transmission.
#
#  For information on this file format, follow the CIF links at
#  http://www.iucr.org
##########################################################################

data_NaMn7O12
_symmetry_space_group_name_H-M          'P 1'
_cell_length_a                          6.45009900349
_cell_length_b                          6.45009900075
_cell_length_c                          6.450099
_cell_angle_alpha                       109.471220632
_cell_angle_beta                        109.471220624
_cell_angle_gamma                       109.471220654
_chemical_name_systematic               'Generated by pymatgen'
_symmetry_Int_Tables_number             1
_chemical_formula_structural            NaMn7O12
_chemical_formula_sum                   'Na1 Mn7 O12'
_cell_volume                            206.574757211
_cell_formula_units_Z                   1
loop_
  _symmetry_equiv_pos_site_id
  _symmetry_equiv_pos_as_xyz
   1  'x, y, z'
 
loop_
  _atom_site_type_symbol
  _atom_site_label
  _atom_site_symmetry_multiplicity
  _atom_site_fract_x
  _atom_site_fract_y
  _atom_site_fract_z
  _atom_site_attached_hydrogens
  _atom_site_B_iso_or_equiv
  _atom_site_occupancy
   O  O1  1  0.816550  0.312418  0.128968  0  .  1
   O  O2  1  0.183450  0.687582  0.871032  0  .  1
   O  O3  1  0.816550  0.687582  0.504132  0  .  1
   O  O4  1  0.312418  0.495868  0.183450  0  .  1
   O  O5  1  0.495868  0.183450  0.312418  0  .  1
   O  O6  1  0.128968  0.816550  0.312418  0  .  1
   O  O7  1  0.687582  0.871032  0.183450  0  .  1
   O  O8  1  0.504132  0.816550  0.687582  0  .  1
   O  O9  1  0.183450  0.312418  0.495868  0  .  1
   O  O10  1  0.687582  0.504132  0.816550  0  .  1
   O  O11  1  0.871032  0.183450  0.687582  0  .  1
   O  O12  1  0.312418  0.128968  0.816550  0  .  1
   Na  Na13  1  0.000000  0.000000  0.000000  0  .  1
   Mn  Mn14  1  0.000000  0.000000  0.500000  0  .  1
   Mn  Mn15  1  0.000000  0.500000  0.000000  0  .  1
   Mn  Mn16  1  0.500000  0.500000  0.500000  0  .  1
   Mn  Mn17  1  0.500000  0.000000  0.500000  0  .  1
   Mn  Mn18  1  0.500000  0.500000  0.000000  0  .  1
   Mn  Mn19  1  0.000000  0.500000  0.500000  0  .  1
   Mn  Mn20  1  0.500000  0.000000  0.000000  0  .  1
 
