#\#CIF1.1
##########################################################################
#               Crystallographic Information Format file 
#               Produced by PyCifRW module
# 
#  This is a CIF file.  CIF has been adopted by the International
#  Union of Crystallography as the standard for data archiving and 
#  transmission.
#
#  For information on this file format, follow the CIF links at
#  http://www.iucr.org
##########################################################################

data_NaMn3O4
_symmetry_space_group_name_H-M          'P 1'
_cell_length_a                          6.23345843999
_cell_length_b                          6.23345612565
_cell_length_c                          3.20623004879
_cell_angle_alpha                       61.0724774021
_cell_angle_beta                        61.0729422927
_cell_angle_gamma                       89.6776606721
_chemical_name_systematic               'Generated by pymatgen'
_symmetry_Int_Tables_number             1
_chemical_formula_structural            NaMn3O4
_chemical_formula_sum                   'Na1 Mn3 O4'
_cell_volume                            91.0952829348
_cell_formula_units_Z                   1
loop_
  _symmetry_equiv_pos_site_id
  _symmetry_equiv_pos_as_xyz
   1  'x, y, z'
 
loop_
  _atom_site_type_symbol
  _atom_site_label
  _atom_site_symmetry_multiplicity
  _atom_site_fract_x
  _atom_site_fract_y
  _atom_site_fract_z
  _atom_site_attached_hydrogens
  _atom_site_B_iso_or_equiv
  _atom_site_occupancy
   Na  Na1  1  0.000125  0.000067  0.999714  0  .  1
   Mn  Mn2  1  0.500077  0.999924  0.999912  0  .  1
   Mn  Mn3  1  0.500212  0.500099  0.999423  0  .  1
   Mn  Mn4  1  0.000154  0.499957  0.999954  0  .  1
   O  O5  1  0.728272  0.272104  0.999272  0  .  1
   O  O6  1  0.276126  0.276068  0.998520  0  .  1
   O  O7  1  0.724163  0.724104  0.000594  0  .  1
   O  O8  1  0.272138  0.728237  0.999273  0  .  1
 
