#\#CIF1.1
##########################################################################
#               Crystallographic Information Format file 
#               Produced by PyCifRW module
# 
#  This is a CIF file.  CIF has been adopted by the International
#  Union of Crystallography as the standard for data archiving and 
#  transmission.
#
#  For information on this file format, follow the CIF links at
#  http://www.iucr.org
##########################################################################

data_NaMn3O6
_symmetry_space_group_name_H-M          'P 1'
_cell_length_a                          6.03217319372
_cell_length_b                          6.03217319372
_cell_length_c                          13.7448199228
_cell_angle_alpha                       102.504290064
_cell_angle_beta                        102.504290064
_cell_angle_gamma                       91.8360811563
_chemical_name_systematic               'Generated by pymatgen'
_symmetry_Int_Tables_number             1
_chemical_formula_structural            NaMn3O6
_chemical_formula_sum                   'Na4 Mn12 O24'
_cell_volume                            475.052309208
_cell_formula_units_Z                   4
loop_
  _symmetry_equiv_pos_site_id
  _symmetry_equiv_pos_as_xyz
   1  'x, y, z'
 
loop_
  _atom_site_type_symbol
  _atom_site_label
  _atom_site_symmetry_multiplicity
  _atom_site_fract_x
  _atom_site_fract_y
  _atom_site_fract_z
  _atom_site_attached_hydrogens
  _atom_site_B_iso_or_equiv
  _atom_site_occupancy
   Na  Na1  1  0.874688  0.621903  0.249124  0  .  1
   Na  Na2  1  0.458543  0.711408  0.417513  0  .  1
   Na  Na3  1  0.121903  0.374688  0.749124  0  .  1
   Na  Na4  1  0.211408  0.958543  0.917513  0  .  1
   Mn  Mn5  1  0.507740  0.507402  0.004223  0  .  1
   Mn  Mn6  1  0.994390  0.499848  0.004477  0  .  1
   Mn  Mn7  1  0.325918  0.325609  0.162408  0  .  1
   Mn  Mn8  1  0.333586  0.838921  0.162199  0  .  1
   Mn  Mn9  1  0.666735  0.166791  0.333379  0  .  1
   Mn  Mn10  1  0.166544  0.166638  0.333281  0  .  1
   Mn  Mn11  1  0.007402  0.007740  0.504223  0  .  1
   Mn  Mn12  1  -0.000152  0.494390  0.504477  0  .  1
   Mn  Mn13  1  0.338921  0.833586  0.662199  0  .  1
   Mn  Mn14  1  0.825609  0.825918  0.662408  0  .  1
   Mn  Mn15  1  0.666791  0.166735  0.833379  0  .  1
   Mn  Mn16  1  0.666638  0.666544  0.833281  0  .  1
   O  O17  1  0.251422  0.297894  0.012984  0  .  1
   O  O18  1  0.260134  0.717659  0.013912  0  .  1
   O  O19  1  0.535402  0.581861  0.153697  0  .  1
   O  O20  1  0.115713  0.573264  0.152811  0  .  1
   O  O21  1  0.542420  0.096538  0.169019  0  .  1
   O  O22  1  0.124902  0.071971  0.164139  0  .  1
   O  O23  1  0.387245  0.377865  0.310515  0  .  1
   O  O24  1  0.416000  0.939582  0.311536  0  .  1
   O  O25  1  0.917355  0.393840  0.355177  0  .  1
   O  O26  1  0.945967  0.955486  0.356106  0  .  1
   O  O27  1  0.790990  0.236835  0.497702  0  .  1
   O  O28  1  0.208428  0.261230  0.502467  0  .  1
   O  O29  1  0.217659  0.760134  0.513912  0  .  1
   O  O30  1  0.797894  0.751422  0.512984  0  .  1
   O  O31  1  0.081861  0.035402  0.653697  0  .  1
   O  O32  1  0.073264  0.615713  0.652811  0  .  1
   O  O33  1  0.571971  0.624902  0.664139  0  .  1
   O  O34  1  0.596538  0.042420  0.669019  0  .  1
   O  O35  1  0.439582  0.916000  0.811536  0  .  1
   O  O36  1  0.877865  0.887245  0.810515  0  .  1
   O  O37  1  0.455486  0.445967  0.856106  0  .  1
   O  O38  1  0.893840  0.417355  0.855177  0  .  1
   O  O39  1  0.761230  0.708428  0.002467  0  .  1
   O  O40  1  0.736835  0.290990  0.997702  0  .  1
 
