#\#CIF1.1
##########################################################################
#               Crystallographic Information Format file 
#               Produced by PyCifRW module
# 
#  This is a CIF file.  CIF has been adopted by the International
#  Union of Crystallography as the standard for data archiving and 
#  transmission.
#
#  For information on this file format, follow the CIF links at
#  http://www.iucr.org
##########################################################################

data_NaNi5O6
_symmetry_space_group_name_H-M          'P 1'
_cell_length_a                          5.18622049589
_cell_length_b                          5.19035595398
_cell_length_c                          5.19006555794
_cell_angle_alpha                       119.820807701
_cell_angle_beta                        80.2611836013
_cell_angle_gamma                       80.2629503257
_chemical_name_systematic               'Generated by pymatgen'
_symmetry_Int_Tables_number             1
_chemical_formula_structural            NaNi5O6
_chemical_formula_sum                   'Na1 Ni5 O6'
_cell_volume                            114.102249175
_cell_formula_units_Z                   1
loop_
  _symmetry_equiv_pos_site_id
  _symmetry_equiv_pos_as_xyz
   1  'x, y, z'
 
loop_
  _atom_site_type_symbol
  _atom_site_label
  _atom_site_symmetry_multiplicity
  _atom_site_fract_x
  _atom_site_fract_y
  _atom_site_fract_z
  _atom_site_attached_hydrogens
  _atom_site_B_iso_or_equiv
  _atom_site_occupancy
   Na  Na1  1  0.500000  0.166667  0.833333  0  .  1
   Ni  Ni2  1  -0.000054  0.002935  0.997235  0  .  1
   Ni  Ni3  1  0.000054  0.330398  0.669432  0  .  1
   Ni  Ni4  1  0.000000  0.666667  0.333333  0  .  1
   Ni  Ni5  1  0.499977  0.499135  0.500916  0  .  1
   Ni  Ni6  1  0.500023  0.834199  0.165751  0  .  1
   O  O7  1  0.241695  0.255156  0.278399  0  .  1
   O  O8  1  0.758305  0.078177  0.388267  0  .  1
   O  O9  1  0.765119  0.431279  0.097908  0  .  1
   O  O10  1  0.241715  0.611698  0.921851  0  .  1
   O  O11  1  0.234881  0.902054  0.568759  0  .  1
   O  O12  1  0.758285  0.721635  0.744816  0  .  1
 
