#\#CIF1.1
##########################################################################
#               Crystallographic Information Format file 
#               Produced by PyCifRW module
# 
#  This is a CIF file.  CIF has been adopted by the International
#  Union of Crystallography as the standard for data archiving and 
#  transmission.
#
#  For information on this file format, follow the CIF links at
#  http://www.iucr.org
##########################################################################

data_NaTi8O16
_symmetry_space_group_name_H-M          'P 1'
_cell_length_a                          6.03871693352
_cell_length_b                          9.97604916031
_cell_length_c                          6.04873992652
_cell_angle_alpha                       80.5177296056
_cell_angle_beta                        59.2897285706
_cell_angle_gamma                       97.5513613923
_chemical_name_systematic               'Generated by pymatgen'
_symmetry_Int_Tables_number             1
_chemical_formula_structural            NaTi8O16
_chemical_formula_sum                   'Na1 Ti8 O16'
_cell_volume                            298.860032905
_cell_formula_units_Z                   1
loop_
  _symmetry_equiv_pos_site_id
  _symmetry_equiv_pos_as_xyz
   1  'x, y, z'
 
loop_
  _atom_site_type_symbol
  _atom_site_label
  _atom_site_symmetry_multiplicity
  _atom_site_fract_x
  _atom_site_fract_y
  _atom_site_fract_z
  _atom_site_attached_hydrogens
  _atom_site_B_iso_or_equiv
  _atom_site_occupancy
   Na  Na1  1  0.375673  0.459383  0.671222  0  .  1
   Ti  Ti2  1  0.816204  0.352222  0.721109  0  .  1
   Ti  Ti3  1  0.696432  0.645753  0.794840  0  .  1
   Ti  Ti4  1  0.204063  0.125907  0.834267  0  .  1
   Ti  Ti5  1  0.717749  0.141156  0.330725  0  .  1
   Ti  Ti6  1  0.284619  0.857752  0.671980  0  .  1
   Ti  Ti7  1  0.773222  0.855427  0.185040  0  .  1
   Ti  Ti8  1  0.322852  0.351117  0.214861  0  .  1
   Ti  Ti9  1  0.167698  0.638973  0.273716  0  .  1
   O  O10  1  0.911813  0.230797  0.923402  0  .  1
   O  O11  1  0.699350  0.461593  0.985655  0  .  1
   O  O12  1  0.424824  0.271309  0.900949  0  .  1
   O  O13  1  0.924208  0.266736  0.403374  0  .  1
   O  O14  1  0.798533  0.539144  0.516024  0  .  1
   O  O15  1  0.486308  0.033457  0.699879  0  .  1
   O  O16  1  0.983549  0.032773  0.203445  0  .  1
   O  O17  1  0.594408  0.768092  0.574998  0  .  1
   O  O18  1  0.407038  0.230742  0.427741  0  .  1
   O  O19  1  0.013276  0.963160  0.800283  0  .  1
   O  O20  1  0.512895  0.962876  0.301992  0  .  1
   O  O21  1  0.185370  0.459752  0.473688  0  .  1
   O  O22  1  0.572388  0.726736  0.101299  0  .  1
   O  O23  1  0.077977  0.726275  0.594696  0  .  1
   O  O24  1  0.306749  0.539431  0.009038  0  .  1
   O  O25  1  0.093297  0.770549  0.071111  0  .  1
 
