#\#CIF1.1
##########################################################################
#               Crystallographic Information Format file 
#               Produced by PyCifRW module
# 
#  This is a CIF file.  CIF has been adopted by the International
#  Union of Crystallography as the standard for data archiving and 
#  transmission.
#
#  For information on this file format, follow the CIF links at
#  http://www.iucr.org
##########################################################################

data_NaTi6O12
_symmetry_space_group_name_H-M          'P 1'
_cell_length_a                          5.96498635253
_cell_length_b                          5.96788767221
_cell_length_c                          7.16528216649
_cell_angle_alpha                       82.748513986
_cell_angle_beta                        94.7172616693
_cell_angle_gamma                       59.9029864107
_chemical_name_systematic               'Generated by pymatgen'
_symmetry_Int_Tables_number             1
_chemical_formula_structural            NaTi6O12
_chemical_formula_sum                   'Na1 Ti6 O12'
_cell_volume                            215.747388753
_cell_formula_units_Z                   1
loop_
  _symmetry_equiv_pos_site_id
  _symmetry_equiv_pos_as_xyz
   1  'x, y, z'
 
loop_
  _atom_site_type_symbol
  _atom_site_label
  _atom_site_symmetry_multiplicity
  _atom_site_fract_x
  _atom_site_fract_y
  _atom_site_fract_z
  _atom_site_attached_hydrogens
  _atom_site_B_iso_or_equiv
  _atom_site_occupancy
   Na  Na1  1  0.590703  0.363518  0.442684  0  .  1
   Ti  Ti2  1  0.993650  0.001177  0.006056  0  .  1
   Ti  Ti3  1  0.066942  0.414484  0.301097  0  .  1
   Ti  Ti4  1  0.412064  0.071260  0.698276  0  .  1
   Ti  Ti5  1  0.505430  0.497116  0.984646  0  .  1
   Ti  Ti6  1  0.559763  0.913449  0.300012  0  .  1
   Ti  Ti7  1  0.944015  0.602507  0.689393  0  .  1
   O  O8  1  0.267624  0.043839  0.450412  0  .  1
   O  O9  1  0.103781  0.206740  0.812420  0  .  1
   O  O10  1  0.391522  0.296092  0.190729  0  .  1
   O  O11  1  0.234521  0.448665  0.553349  0  .  1
   O  O12  1  0.128671  0.697001  0.865550  0  .  1
   O  O13  1  0.623837  0.191266  0.864056  0  .  1
   O  O14  1  0.866957  0.305216  0.143268  0  .  1
   O  O15  1  0.377742  0.799132  0.139747  0  .  1
   O  O16  1  0.784140  0.558796  0.449304  0  .  1
   O  O17  1  0.611820  0.695239  0.808615  0  .  1
   O  O18  1  0.891419  0.797940  0.187138  0  .  1
   O  O19  1  0.725099  0.955863  0.554049  0  .  1
 
