#\#CIF1.1
##########################################################################
#               Crystallographic Information Format file 
#               Produced by PyCifRW module
# 
#  This is a CIF file.  CIF has been adopted by the International
#  Union of Crystallography as the standard for data archiving and 
#  transmission.
#
#  For information on this file format, follow the CIF links at
#  http://www.iucr.org
##########################################################################

data_NaTiSe4
_symmetry_space_group_name_H-M          'P 1'
_cell_length_a                          7.4155778
_cell_length_b                          13.120704138
_cell_length_c                          13.1428866463
_cell_angle_alpha                       106.631075082
_cell_angle_beta                        90.0
_cell_angle_gamma                       90.0
_chemical_name_systematic               'Generated by pymatgen'
_symmetry_Int_Tables_number             1
_chemical_formula_structural            NaTiSe4
_chemical_formula_sum                   'Na8 Ti8 Se32'
_cell_volume                            1225.27713869
_cell_formula_units_Z                   8
loop_
  _symmetry_equiv_pos_site_id
  _symmetry_equiv_pos_as_xyz
   1  'x, y, z'
 
loop_
  _atom_site_type_symbol
  _atom_site_label
  _atom_site_symmetry_multiplicity
  _atom_site_fract_x
  _atom_site_fract_y
  _atom_site_fract_z
  _atom_site_attached_hydrogens
  _atom_site_B_iso_or_equiv
  _atom_site_occupancy
   Na  Na1  1  0.683706  0.096334  0.870340  0  .  1
   Na  Na2  1  0.183706  0.903666  0.629660  0  .  1
   Na  Na3  1  0.316294  0.903666  0.129660  0  .  1
   Na  Na4  1  0.816294  0.096334  0.370340  0  .  1
   Na  Na5  1  0.666158  0.462512  0.882434  0  .  1
   Na  Na6  1  0.166158  0.537488  0.617566  0  .  1
   Na  Na7  1  0.333842  0.537488  0.117566  0  .  1
   Na  Na8  1  0.833842  0.462512  0.382434  0  .  1
   Ti  Ti9  1  0.728173  0.731415  0.614899  0  .  1
   Ti  Ti10  1  0.228173  0.268585  0.885101  0  .  1
   Ti  Ti11  1  0.271827  0.268585  0.385101  0  .  1
   Ti  Ti12  1  0.771827  0.731415  0.114899  0  .  1
   Ti  Ti13  1  0.799039  0.782177  0.374246  0  .  1
   Ti  Ti14  1  0.299039  0.217823  0.125754  0  .  1
   Ti  Ti15  1  0.200961  0.217823  0.625754  0  .  1
   Ti  Ti16  1  0.700961  0.782177  0.874246  0  .  1
   Se  Se17  1  0.982174  0.675826  0.499052  0  .  1
   Se  Se18  1  0.482174  0.324174  0.000948  0  .  1
   Se  Se19  1  0.017826  0.324174  0.500948  0  .  1
   Se  Se20  1  0.517826  0.675826  0.999052  0  .  1
   Se  Se21  1  0.808379  0.602640  0.742178  0  .  1
   Se  Se22  1  0.308379  0.397360  0.757822  0  .  1
   Se  Se23  1  0.191621  0.397360  0.257822  0  .  1
   Se  Se24  1  0.691621  0.602640  0.242178  0  .  1
   Se  Se25  1  -0.000197  0.732296  0.964293  0  .  1
   Se  Se26  1  0.499803  0.267704  0.535707  0  .  1
   Se  Se27  1  1.000197  0.267704  0.035707  0  .  1
   Se  Se28  1  0.500197  0.732296  0.464293  0  .  1
   Se  Se29  1  0.915768  0.549812  0.104471  0  .  1
   Se  Se30  1  0.415768  0.450188  0.395529  0  .  1
   Se  Se31  1  0.084232  0.450188  0.895529  0  .  1
   Se  Se32  1  0.584232  0.549812  0.604471  0  .  1
   Se  Se33  1  0.073534  0.908543  0.402557  0  .  1
   Se  Se34  1  0.573534  0.091457  0.097443  0  .  1
   Se  Se35  1  0.926466  0.091457  0.597443  0  .  1
   Se  Se36  1  0.426466  0.908543  0.902557  0  .  1
   Se  Se37  1  0.076507  0.751006  0.252746  0  .  1
   Se  Se38  1  0.576507  0.248994  0.247254  0  .  1
   Se  Se39  1  0.923493  0.248994  0.747254  0  .  1
   Se  Se40  1  0.423493  0.751006  0.752746  0  .  1
   Se  Se41  1  0.627358  0.877507  0.270677  0  .  1
   Se  Se42  1  0.127358  0.122493  0.229323  0  .  1
   Se  Se43  1  0.372642  0.122493  0.729323  0  .  1
   Se  Se44  1  0.872642  0.877507  0.770677  0  .  1
   Se  Se45  1  0.646291  0.896016  0.549854  0  .  1
   Se  Se46  1  0.146291  0.103984  0.950146  0  .  1
   Se  Se47  1  0.353709  0.103984  0.450146  0  .  1
   Se  Se48  1  0.853709  0.896016  0.049854  0  .  1
 
