#\#CIF1.1
##########################################################################
#               Crystallographic Information Format file 
#               Produced by PyCifRW module
# 
#  This is a CIF file.  CIF has been adopted by the International
#  Union of Crystallography as the standard for data archiving and 
#  transmission.
#
#  For information on this file format, follow the CIF links at
#  http://www.iucr.org
##########################################################################

data_NaTi5O10
_symmetry_space_group_name_H-M          'P 1'
_cell_length_a                          10.128140322
_cell_length_b                          8.46125163784
_cell_length_c                          9.5208182765
_cell_angle_alpha                       95.3189471456
_cell_angle_beta                        81.8544578116
_cell_angle_gamma                       112.465802272
_chemical_name_systematic               'Generated by pymatgen'
_symmetry_Int_Tables_number             1
_chemical_formula_structural            NaTi5O10
_chemical_formula_sum                   'Na4 Ti20 O40'
_cell_volume                            745.712513459
_cell_formula_units_Z                   4
loop_
  _symmetry_equiv_pos_site_id
  _symmetry_equiv_pos_as_xyz
   1  'x, y, z'
 
loop_
  _atom_site_type_symbol
  _atom_site_label
  _atom_site_symmetry_multiplicity
  _atom_site_fract_x
  _atom_site_fract_y
  _atom_site_fract_z
  _atom_site_attached_hydrogens
  _atom_site_B_iso_or_equiv
  _atom_site_occupancy
   Na  Na1  1  0.199574  0.800122  0.199891  0  .  1
   Na  Na2  1  0.399965  0.599987  0.400132  0  .  1
   Na  Na3  1  0.800426  0.199878  0.800109  0  .  1
   Na  Na4  1  0.600035  0.400013  0.599868  0  .  1
   Ti  Ti5  1  0.337664  0.162261  0.041341  0  .  1
   Ti  Ti6  1  0.046254  0.064626  0.333729  0  .  1
   Ti  Ti7  1  0.848594  0.264215  0.134975  0  .  1
   Ti  Ti8  1  0.553850  0.334669  0.262470  0  .  1
   Ti  Ti9  1  0.354240  0.536368  0.063222  0  .  1
   Ti  Ti10  1  0.753531  0.133711  0.463233  0  .  1
   Ti  Ti11  1  0.057164  0.435516  0.357830  0  .  1
   Ti  Ti12  1  0.458297  0.034551  0.758481  0  .  1
   Ti  Ti13  1  0.257298  0.235568  0.557044  0  .  1
   Ti  Ti14  1  0.140866  0.361432  0.843121  0  .  1
   Ti  Ti15  1  0.859134  0.638568  0.156879  0  .  1
   Ti  Ti16  1  0.541703  0.965449  0.241519  0  .  1
   Ti  Ti17  1  0.742702  0.764432  0.442956  0  .  1
   Ti  Ti18  1  0.942836  0.564484  0.642170  0  .  1
   Ti  Ti19  1  0.246469  0.866289  0.536767  0  .  1
   Ti  Ti20  1  0.446150  0.665331  0.737530  0  .  1
   Ti  Ti21  1  0.645760  0.463632  0.936778  0  .  1
   Ti  Ti22  1  0.151406  0.735785  0.865025  0  .  1
   Ti  Ti23  1  0.953745  0.935374  0.666271  0  .  1
   Ti  Ti24  1  0.662336  0.837739  0.958659  0  .  1
   O  O25  1  0.179328  0.079274  0.183107  0  .  1
   O  O26  1  0.714155  0.037497  0.079478  0  .  1
   O  O27  1  0.457331  0.106828  0.162769  0  .  1
   O  O28  1  0.143458  0.294784  0.435514  0  .  1
   O  O29  1  0.343109  0.094215  0.636614  0  .  1
   O  O30  1  0.464948  0.408726  0.121501  0  .  1
   O  O31  1  0.865909  0.008908  0.521971  0  .  1
   O  O32  1  0.664973  0.208978  0.322367  0  .  1
   O  O33  1  0.082473  0.166661  0.717033  0  .  1
   O  O34  1  0.734008  0.390425  0.078919  0  .  1
   O  O35  1  0.933123  0.191594  0.280299  0  .  1
   O  O36  1  0.026300  0.714464  0.022854  0  .  1
   O  O37  1  0.225980  0.522941  0.220821  0  .  1
   O  O38  1  0.626240  0.122326  0.621526  0  .  1
   O  O39  1  0.426202  0.322478  0.420697  0  .  1
   O  O40  1  0.740533  0.690497  0.037024  0  .  1
   O  O41  1  0.941647  0.493130  0.237241  0  .  1
   O  O42  1  0.483712  0.764972  0.120061  0  .  1
   O  O43  1  0.883614  0.364481  0.520476  0  .  1
   O  O44  1  0.683401  0.564814  0.320162  0  .  1
   O  O45  1  0.316599  0.435186  0.679838  0  .  1
   O  O46  1  0.116386  0.635519  0.479524  0  .  1
   O  O47  1  0.516288  0.235028  0.879939  0  .  1
   O  O48  1  0.259467  0.309503  0.962976  0  .  1
   O  O49  1  0.058353  0.506870  0.762759  0  .  1
   O  O50  1  0.573798  0.677522  0.579303  0  .  1
   O  O51  1  0.774020  0.477059  0.779179  0  .  1
   O  O52  1  0.973700  0.285536  0.977146  0  .  1
   O  O53  1  0.373760  0.877674  0.378474  0  .  1
   O  O54  1  0.265992  0.609575  0.921081  0  .  1
   O  O55  1  0.066877  0.808406  0.719701  0  .  1
   O  O56  1  0.917527  0.833339  0.282967  0  .  1
   O  O57  1  0.335027  0.791022  0.677633  0  .  1
   O  O58  1  0.535052  0.591274  0.878499  0  .  1
   O  O59  1  0.134091  0.991092  0.478029  0  .  1
   O  O60  1  0.856542  0.705216  0.564486  0  .  1
   O  O61  1  0.656891  0.905785  0.363386  0  .  1
   O  O62  1  0.542669  0.893172  0.837231  0  .  1
   O  O63  1  0.285845  0.962503  0.920522  0  .  1
   O  O64  1  0.820672  0.920726  0.816894  0  .  1
 
