#\#CIF1.1
##########################################################################
#               Crystallographic Information Format file 
#               Produced by PyCifRW module
# 
#  This is a CIF file.  CIF has been adopted by the International
#  Union of Crystallography as the standard for data archiving and 
#  transmission.
#
#  For information on this file format, follow the CIF links at
#  http://www.iucr.org
##########################################################################

data_NaV10O15
_symmetry_space_group_name_H-M          'P 1'
_cell_length_a                          7.86244120594
_cell_length_b                          7.86244120594
_cell_length_c                          9.72592157
_cell_angle_alpha                       90.0
_cell_angle_beta                        90.0
_cell_angle_gamma                       82.4895714668
_chemical_name_systematic               'Generated by pymatgen'
_symmetry_Int_Tables_number             1
_chemical_formula_structural            NaV10O15
_chemical_formula_sum                   'Na2 V20 O30'
_cell_volume                            596.078883589
_cell_formula_units_Z                   2
loop_
  _symmetry_equiv_pos_site_id
  _symmetry_equiv_pos_as_xyz
   1  'x, y, z'
 
loop_
  _atom_site_type_symbol
  _atom_site_label
  _atom_site_symmetry_multiplicity
  _atom_site_fract_x
  _atom_site_fract_y
  _atom_site_fract_z
  _atom_site_attached_hydrogens
  _atom_site_B_iso_or_equiv
  _atom_site_occupancy
   Na  Na1  1  0.000000  0.000000  0.000000  0  .  1
   Na  Na2  1  0.500000  0.500000  0.500000  0  .  1
   V  V3  1  0.184144  0.815856  0.367535  0  .  1
   V  V4  1  0.315856  0.684144  0.867535  0  .  1
   V  V5  1  0.598615  0.920869  0.884516  0  .  1
   V  V6  1  0.579131  0.901385  0.615484  0  .  1
   V  V7  1  0.098615  0.420869  0.615484  0  .  1
   V  V8  1  0.079131  0.401385  0.884516  0  .  1
   V  V9  1  0.541121  0.711054  0.145061  0  .  1
   V  V10  1  0.788946  0.958879  0.354939  0  .  1
   V  V11  1  0.041121  0.211054  0.354939  0  .  1
   V  V12  1  0.288946  0.458879  0.145061  0  .  1
   V  V13  1  0.458879  0.288946  0.854939  0  .  1
   V  V14  1  0.958879  0.788946  0.645061  0  .  1
   V  V15  1  0.211054  0.041121  0.645061  0  .  1
   V  V16  1  0.711054  0.541121  0.854939  0  .  1
   V  V17  1  0.920869  0.598615  0.115484  0  .  1
   V  V18  1  0.401385  0.079131  0.115484  0  .  1
   V  V19  1  0.420869  0.098615  0.384516  0  .  1
   V  V20  1  0.901385  0.579131  0.384516  0  .  1
   V  V21  1  0.684144  0.315856  0.132465  0  .  1
   V  V22  1  0.815856  0.184144  0.632465  0  .  1
   O  O23  1  0.154830  0.845170  0.755681  0  .  1
   O  O24  1  0.393543  0.861575  0.004785  0  .  1
   O  O25  1  0.138425  0.606457  0.004785  0  .  1
   O  O26  1  0.361575  0.893543  0.504785  0  .  1
   O  O27  1  0.106457  0.638425  0.504785  0  .  1
   O  O28  1  0.068665  0.431335  0.250000  0  .  1
   O  O29  1  0.568665  0.931335  0.250000  0  .  1
   O  O30  1  0.345170  0.654830  0.255681  0  .  1
   O  O31  1  0.782137  0.961768  0.736326  0  .  1
   O  O32  1  0.538232  0.717863  0.763674  0  .  1
   O  O33  1  0.282137  0.461768  0.763674  0  .  1
   O  O34  1  0.038232  0.217863  0.736326  0  .  1
   O  O35  1  0.740228  0.740228  0.000000  0  .  1
   O  O36  1  0.259772  0.259772  0.000000  0  .  1
   O  O37  1  0.000000  0.000000  0.500000  0  .  1
   O  O38  1  0.500000  0.500000  0.000000  0  .  1
   O  O39  1  0.240228  0.240228  0.500000  0  .  1
   O  O40  1  0.759772  0.759772  0.500000  0  .  1
   O  O41  1  0.217863  0.038232  0.263674  0  .  1
   O  O42  1  0.461768  0.282137  0.236326  0  .  1
   O  O43  1  0.717863  0.538232  0.236326  0  .  1
   O  O44  1  0.961768  0.782137  0.263674  0  .  1
   O  O45  1  0.654830  0.345170  0.744319  0  .  1
   O  O46  1  0.931335  0.568665  0.750000  0  .  1
   O  O47  1  0.431335  0.068665  0.750000  0  .  1
   O  O48  1  0.638425  0.106457  0.495215  0  .  1
   O  O49  1  0.893543  0.361575  0.495215  0  .  1
   O  O50  1  0.606457  0.138425  0.995215  0  .  1
   O  O51  1  0.861575  0.393543  0.995215  0  .  1
   O  O52  1  0.845170  0.154830  0.244319  0  .  1
 
