#\#CIF1.1
##########################################################################
#               Crystallographic Information Format file 
#               Produced by PyCifRW module
# 
#  This is a CIF file.  CIF has been adopted by the International
#  Union of Crystallography as the standard for data archiving and 
#  transmission.
#
#  For information on this file format, follow the CIF links at
#  http://www.iucr.org
##########################################################################

data_NaV13O18
_symmetry_space_group_name_H-M          'P 1'
_cell_length_a                          8.01107473051
_cell_length_b                          7.9415837918
_cell_length_c                          7.95189763616
_cell_angle_alpha                       110.965747597
_cell_angle_beta                        111.594374754
_cell_angle_gamma                       110.636158776
_chemical_name_systematic               'Generated by pymatgen'
_symmetry_Int_Tables_number             1
_chemical_formula_structural            NaV13O18
_chemical_formula_sum                   'Na1 V13 O18'
_cell_volume                            364.635648637
_cell_formula_units_Z                   1
loop_
  _symmetry_equiv_pos_site_id
  _symmetry_equiv_pos_as_xyz
   1  'x, y, z'
 
loop_
  _atom_site_type_symbol
  _atom_site_label
  _atom_site_symmetry_multiplicity
  _atom_site_fract_x
  _atom_site_fract_y
  _atom_site_fract_z
  _atom_site_attached_hydrogens
  _atom_site_B_iso_or_equiv
  _atom_site_occupancy
   Na  Na1  1  0.000099  0.999605  0.999439  0  .  1
   V  V2  1  0.081493  0.878364  0.580484  0  .  1
   V  V3  1  0.426971  0.930308  0.129010  0  .  1
   V  V4  1  0.345509  0.769734  0.400984  0  .  1
   V  V5  1  0.226172  0.597821  0.645905  0  .  1
   V  V6  1  0.120726  0.424685  0.923129  0  .  1
   V  V7  1  0.605564  0.650776  0.231424  0  .  1
   V  V8  1  0.492855  0.503551  0.499859  0  .  1
   V  V9  1  0.402366  0.348652  0.770012  0  .  1
   V  V10  1  0.882748  0.577976  0.078468  0  .  1
   V  V11  1  0.763253  0.402506  0.346475  0  .  1
   V  V12  1  0.640861  0.218563  0.587739  0  .  1
   V  V13  1  0.583538  0.080333  0.879131  0  .  1
   V  V14  1  0.924574  0.120733  0.423930  0  .  1
   O  O15  1  0.289802  0.903905  0.842919  0  .  1
   O  O16  1  0.150470  0.713923  0.092071  0  .  1
   O  O17  1  0.047217  0.606255  0.374507  0  .  1
   O  O18  1  0.625546  0.943886  0.391516  0  .  1
   O  O19  1  0.520166  0.779858  0.682050  0  .  1
   O  O20  1  0.385930  0.609170  0.937496  0  .  1
   O  O21  1  0.326696  0.484247  0.221833  0  .  1
   O  O22  1  0.213744  0.315996  0.485608  0  .  1
   O  O23  1  0.114203  0.165775  0.728480  0  .  1
   O  O24  1  0.906782  0.847395  0.287157  0  .  1
   O  O25  1  0.782878  0.671337  0.521643  0  .  1
   O  O26  1  0.667802  0.508899  0.782189  0  .  1
   O  O27  1  0.615154  0.381571  0.058357  0  .  1
   O  O28  1  0.479654  0.223635  0.318816  0  .  1
   O  O29  1  0.380804  0.065232  0.616837  0  .  1
   O  O30  1  0.933805  0.386090  0.608470  0  .  1
   O  O31  1  0.840822  0.276965  0.892030  0  .  1
   O  O32  1  0.721792  0.112252  0.162030  0  .  1
 
