#\#CIF1.1
##########################################################################
#               Crystallographic Information Format file 
#               Produced by PyCifRW module
# 
#  This is a CIF file.  CIF has been adopted by the International
#  Union of Crystallography as the standard for data archiving and 
#  transmission.
#
#  For information on this file format, follow the CIF links at
#  http://www.iucr.org
##########################################################################

data_NaV4O10
_symmetry_space_group_name_H-M          'P 1'
_cell_length_a                          3.68001694
_cell_length_b                          6.17130760053
_cell_length_c                          9.57330263635
_cell_angle_alpha                       79.4072690121
_cell_angle_beta                        90.0
_cell_angle_gamma                       72.6531562945
_chemical_name_systematic               'Generated by pymatgen'
_symmetry_Int_Tables_number             1
_chemical_formula_structural            NaV4O10
_chemical_formula_sum                   'Na1 V4 O10'
_cell_volume                            203.641188278
_cell_formula_units_Z                   1
loop_
  _symmetry_equiv_pos_site_id
  _symmetry_equiv_pos_as_xyz
   1  'x, y, z'
 
loop_
  _atom_site_type_symbol
  _atom_site_label
  _atom_site_symmetry_multiplicity
  _atom_site_fract_x
  _atom_site_fract_y
  _atom_site_fract_z
  _atom_site_attached_hydrogens
  _atom_site_B_iso_or_equiv
  _atom_site_occupancy
   Na  Na1  1  0.500000  0.000000  0.500000  0  .  1
   V  V2  1  0.088606  0.822789  0.162469  0  .  1
   V  V3  1  0.203110  0.593780  0.832021  0  .  1
   V  V4  1  0.796890  0.406220  0.167979  0  .  1
   V  V5  1  0.911394  0.177211  0.837531  0  .  1
   O  O6  1  0.064966  0.870068  0.904062  0  .  1
   O  O7  1  0.093664  0.812673  0.334372  0  .  1
   O  O8  1  0.150232  0.699536  0.661662  0  .  1
   O  O9  1  0.623830  0.752339  0.137860  0  .  1
   O  O10  1  0.741581  0.516838  0.877120  0  .  1
   O  O11  1  0.258419  0.483162  0.122880  0  .  1
   O  O12  1  0.376170  0.247661  0.862140  0  .  1
   O  O13  1  0.849768  0.300464  0.338338  0  .  1
   O  O14  1  0.906336  0.187327  0.665628  0  .  1
   O  O15  1  0.935034  0.129932  0.095938  0  .  1
 
