#\#CIF1.1
##########################################################################
#               Crystallographic Information Format file 
#               Produced by PyCifRW module
# 
#  This is a CIF file.  CIF has been adopted by the International
#  Union of Crystallography as the standard for data archiving and 
#  transmission.
#
#  For information on this file format, follow the CIF links at
#  http://www.iucr.org
##########################################################################

data_NaVSe2
_symmetry_space_group_name_H-M          'P 1'
_cell_length_a                          7.20398367021
_cell_length_b                          7.20398366602
_cell_length_c                          7.20398366981
_cell_angle_alpha                       30.4223933058
_cell_angle_beta                        30.4223933873
_cell_angle_gamma                       30.4223933335
_chemical_name_systematic               'Generated by pymatgen'
_symmetry_Int_Tables_number             1
_chemical_formula_structural            NaVSe2
_chemical_formula_sum                   'Na1 V1 Se2'
_cell_volume                            84.9681338656
_cell_formula_units_Z                   1
loop_
  _symmetry_equiv_pos_site_id
  _symmetry_equiv_pos_as_xyz
   1  'x, y, z'
 
loop_
  _atom_site_type_symbol
  _atom_site_label
  _atom_site_symmetry_multiplicity
  _atom_site_fract_x
  _atom_site_fract_y
  _atom_site_fract_z
  _atom_site_attached_hydrogens
  _atom_site_B_iso_or_equiv
  _atom_site_occupancy
   Na  Na1  1  0.500000  0.500000  0.500000  0  .  1
   V  V2  1  0.000000  0.000000  0.000000  0  .  1
   Se  Se3  1  0.734835  0.734835  0.734835  0  .  1
   Se  Se4  1  0.265165  0.265165  0.265165  0  .  1
 
