#\#CIF1.1
##########################################################################
#               Crystallographic Information Format file 
#               Produced by PyCifRW module
# 
#  This is a CIF file.  CIF has been adopted by the International
#  Union of Crystallography as the standard for data archiving and 
#  transmission.
#
#  For information on this file format, follow the CIF links at
#  http://www.iucr.org
##########################################################################

data_Nd(NiSn)2
_symmetry_space_group_name_H-M          'P 1'
_cell_length_a                          4.41551748974
_cell_length_b                          4.41551758656
_cell_length_c                          6.11705175198
_cell_angle_alpha                       111.156630188
_cell_angle_beta                        111.156630702
_cell_angle_gamma                       90.0000021896
_chemical_name_systematic               'Generated by pymatgen'
_symmetry_Int_Tables_number             1
_chemical_formula_structural            Nd(NiSn)2
_chemical_formula_sum                   'Nd1 Ni2 Sn2'
_cell_volume                            102.557451141
_cell_formula_units_Z                   1
loop_
  _symmetry_equiv_pos_site_id
  _symmetry_equiv_pos_as_xyz
   1  'x, y, z'
 
loop_
  _atom_site_type_symbol
  _atom_site_label
  _atom_site_symmetry_multiplicity
  _atom_site_fract_x
  _atom_site_fract_y
  _atom_site_fract_z
  _atom_site_attached_hydrogens
  _atom_site_B_iso_or_equiv
  _atom_site_occupancy
   Nd  Nd1  1  0.000000  0.000000  0.000000  0  .  1
   Ni  Ni2  1  0.750000  0.250000  0.500000  0  .  1
   Ni  Ni3  1  0.250000  0.750000  0.500000  0  .  1
   Sn  Sn4  1  0.635305  0.635305  0.270610  0  .  1
   Sn  Sn5  1  0.364695  0.364695  0.729390  0  .  1
 
