#\#CIF1.1
##########################################################################
#               Crystallographic Information Format file 
#               Produced by PyCifRW module
# 
#  This is a CIF file.  CIF has been adopted by the International
#  Union of Crystallography as the standard for data archiving and 
#  transmission.
#
#  For information on this file format, follow the CIF links at
#  http://www.iucr.org
##########################################################################

data_Nd2NiO4
_symmetry_space_group_name_H-M          'P 1'
_cell_length_a                          5.41718877017
_cell_length_b                          5.69321812
_cell_length_c                          6.66164809825
_cell_angle_alpha                       90.0
_cell_angle_beta                        113.991131641
_cell_angle_gamma                       90.0
_chemical_name_systematic               'Generated by pymatgen'
_symmetry_Int_Tables_number             1
_chemical_formula_structural            Nd2NiO4
_chemical_formula_sum                   'Nd4 Ni2 O8'
_cell_volume                            187.704016076
_cell_formula_units_Z                   2
loop_
  _symmetry_equiv_pos_site_id
  _symmetry_equiv_pos_as_xyz
   1  'x, y, z'
 
loop_
  _atom_site_type_symbol
  _atom_site_label
  _atom_site_symmetry_multiplicity
  _atom_site_fract_x
  _atom_site_fract_y
  _atom_site_fract_z
  _atom_site_attached_hydrogens
  _atom_site_B_iso_or_equiv
  _atom_site_occupancy
   O  O1  1  0.320340  0.426728  0.640681  0  .  1
   O  O2  1  0.679660  0.573272  0.359320  0  .  1
   O  O3  1  0.179660  0.926728  0.359320  0  .  1
   O  O4  1  0.820340  0.073272  0.640681  0  .  1
   O  O5  1  0.272042  0.250000  0.044083  0  .  1
   O  O6  1  0.227958  0.750000  0.955916  0  .  1
   O  O7  1  0.772042  0.250000  0.044083  0  .  1
   O  O8  1  0.727958  0.750000  0.955916  0  .  1
   Ni  Ni9  1  0.000000  0.000000  0.000000  0  .  1
   Ni  Ni10  1  0.500000  0.500000  0.000000  0  .  1
   Nd  Nd11  1  0.637187  0.982994  0.274374  0  .  1
   Nd  Nd12  1  0.362813  0.017006  0.725625  0  .  1
   Nd  Nd13  1  0.862813  0.482994  0.725626  0  .  1
   Nd  Nd14  1  0.137187  0.517008  0.274374  0  .  1
 
