#\#CIF1.1
##########################################################################
#               Crystallographic Information Format file 
#               Produced by PyCifRW module
# 
#  This is a CIF file.  CIF has been adopted by the International
#  Union of Crystallography as the standard for data archiving and 
#  transmission.
#
#  For information on this file format, follow the CIF links at
#  http://www.iucr.org
##########################################################################

data_NdAl4
_symmetry_space_group_name_H-M          'P 1'
_cell_length_a                          4.27162159
_cell_length_b                          4.27162158499
_cell_length_c                          6.43974096599
_cell_angle_alpha                       109.369621199
_cell_angle_beta                        109.369621217
_cell_angle_gamma                       89.9999999759
_chemical_name_systematic               'Generated by pymatgen'
_symmetry_Int_Tables_number             1
_chemical_formula_structural            NdAl4
_chemical_formula_sum                   'Nd1 Al4'
_cell_volume                            103.777164214
_cell_formula_units_Z                   1
loop_
  _symmetry_equiv_pos_site_id
  _symmetry_equiv_pos_as_xyz
   1  'x, y, z'
 
loop_
  _atom_site_type_symbol
  _atom_site_label
  _atom_site_symmetry_multiplicity
  _atom_site_fract_x
  _atom_site_fract_y
  _atom_site_fract_z
  _atom_site_attached_hydrogens
  _atom_site_B_iso_or_equiv
  _atom_site_occupancy
   Al  Al1  1  0.611272  0.611272  0.222543  0  .  1
   Al  Al2  1  0.250000  0.750000  0.500000  0  .  1
   Al  Al3  1  0.750000  0.250000  0.500000  0  .  1
   Al  Al4  1  0.388728  0.388728  0.777457  0  .  1
   Nd  Nd5  1  0.000000  0.000000  0.000000  0  .  1
 
