#\#CIF1.1
##########################################################################
#               Crystallographic Information Format file 
#               Produced by PyCifRW module
# 
#  This is a CIF file.  CIF has been adopted by the International
#  Union of Crystallography as the standard for data archiving and 
#  transmission.
#
#  For information on this file format, follow the CIF links at
#  http://www.iucr.org
##########################################################################

data_Ni(RhSe2)2
_symmetry_space_group_name_H-M          'P 1'
_cell_length_a                          3.72471466359
_cell_length_b                          6.40191070367
_cell_length_c                          6.42029270751
_cell_angle_alpha                       118.25449177
_cell_angle_beta                        106.862361579
_cell_angle_gamma                       89.9999999878
_chemical_name_systematic               'Generated by pymatgen'
_symmetry_Int_Tables_number             1
_chemical_formula_structural            Ni(RhSe2)2
_chemical_formula_sum                   'Ni1 Rh2 Se4'
_cell_volume                            127.33133937
_cell_formula_units_Z                   1
loop_
  _symmetry_equiv_pos_site_id
  _symmetry_equiv_pos_as_xyz
   1  'x, y, z'
 
loop_
  _atom_site_type_symbol
  _atom_site_label
  _atom_site_symmetry_multiplicity
  _atom_site_fract_x
  _atom_site_fract_y
  _atom_site_fract_z
  _atom_site_attached_hydrogens
  _atom_site_B_iso_or_equiv
  _atom_site_occupancy
   Ni  Ni1  1  0.000000  0.000000  0.000000  0  .  1
   Se  Se2  1  0.369048  0.024591  0.738096  0  .  1
   Se  Se3  1  0.116397  0.448214  0.232795  0  .  1
   Se  Se4  1  0.630952  0.975409  0.261904  0  .  1
   Se  Se5  1  0.883603  0.551786  0.767205  0  .  1
   Rh  Rh6  1  0.263792  0.282560  0.527585  0  .  1
   Rh  Rh7  1  0.736208  0.717440  0.472415  0  .  1
 
