#\#CIF1.1
##########################################################################
#               Crystallographic Information Format file 
#               Produced by PyCifRW module
# 
#  This is a CIF file.  CIF has been adopted by the International
#  Union of Crystallography as the standard for data archiving and 
#  transmission.
#
#  For information on this file format, follow the CIF links at
#  http://www.iucr.org
##########################################################################

data_Ni17S18
_symmetry_space_group_name_H-M          'P 1'
_cell_length_a                          10.30153225
_cell_length_b                          10.3015318955
_cell_length_c                          15.47470631
_cell_angle_alpha                       90.0
_cell_angle_beta                        90.0
_cell_angle_gamma                       120.000001106
_chemical_name_systematic               'Generated by pymatgen'
_symmetry_Int_Tables_number             1
_chemical_formula_structural            Ni17S18
_chemical_formula_sum                   'Ni51 S54'
_cell_volume                            1422.18692069
_cell_formula_units_Z                   3
loop_
  _symmetry_equiv_pos_site_id
  _symmetry_equiv_pos_as_xyz
   1  'x, y, z'
 
loop_
  _atom_site_type_symbol
  _atom_site_label
  _atom_site_symmetry_multiplicity
  _atom_site_fract_x
  _atom_site_fract_y
  _atom_site_fract_z
  _atom_site_attached_hydrogens
  _atom_site_B_iso_or_equiv
  _atom_site_occupancy
   S  S1  1  0.108911  0.225076  0.078802  0  .  1
   S  S2  1  0.774924  0.883835  0.412135  0  .  1
   S  S3  1  0.116165  0.891089  0.745468  0  .  1
   S  S4  1  0.883835  0.774924  0.587865  0  .  1
   S  S5  1  0.891089  0.116165  0.254532  0  .  1
   S  S6  1  0.225076  0.108911  0.921198  0  .  1
   S  S7  1  0.444743  0.223014  0.087064  0  .  1
   S  S8  1  0.776986  0.221729  0.420397  0  .  1
   S  S9  1  0.778271  0.555257  0.753731  0  .  1
   S  S10  1  0.221729  0.776986  0.579603  0  .  1
   S  S11  1  0.555257  0.778271  0.246269  0  .  1
   S  S12  1  0.223014  0.444743  0.912936  0  .  1
   S  S13  1  0.782969  0.225327  0.079288  0  .  1
   S  S14  1  0.774673  0.557642  0.412621  0  .  1
   S  S15  1  0.442358  0.217031  0.745954  0  .  1
   S  S16  1  0.557642  0.774673  0.587379  0  .  1
   S  S17  1  0.217031  0.442358  0.254046  0  .  1
   S  S18  1  0.225327  0.782969  0.920712  0  .  1
   S  S19  1  0.108757  0.551026  0.078415  0  .  1
   S  S20  1  0.448974  0.557731  0.411748  0  .  1
   S  S21  1  0.442269  0.891243  0.745082  0  .  1
   S  S22  1  0.557731  0.448974  0.588252  0  .  1
   S  S23  1  0.891243  0.442269  0.254918  0  .  1
   S  S24  1  0.551026  0.108757  0.921585  0  .  1
   S  S25  1  0.440220  0.553845  0.086742  0  .  1
   S  S26  1  0.446155  0.886374  0.420076  0  .  1
   S  S27  1  0.113626  0.559780  0.753409  0  .  1
   S  S28  1  0.886374  0.446155  0.579924  0  .  1
   S  S29  1  0.559780  0.113626  0.246591  0  .  1
   S  S30  1  0.553845  0.440220  0.913258  0  .  1
   S  S31  1  0.780185  0.553817  0.087088  0  .  1
   S  S32  1  0.446183  0.226368  0.420422  0  .  1
   S  S33  1  0.773632  0.219815  0.753755  0  .  1
   S  S34  1  0.226368  0.446183  0.579578  0  .  1
   S  S35  1  0.219815  0.773632  0.246245  0  .  1
   S  S36  1  0.553817  0.780185  0.912912  0  .  1
   S  S37  1  0.110828  0.888956  0.086944  0  .  1
   S  S38  1  0.111044  0.221872  0.420277  0  .  1
   S  S39  1  0.778128  0.889172  0.753610  0  .  1
   S  S40  1  0.221872  0.111044  0.579723  0  .  1
   S  S41  1  0.889172  0.778128  0.246390  0  .  1
   S  S42  1  0.888956  0.110828  0.913056  0  .  1
   S  S43  1  0.444735  0.888932  0.086891  0  .  1
   S  S44  1  0.111068  0.555803  0.420224  0  .  1
   S  S45  1  0.444197  0.555265  0.753557  0  .  1
   S  S46  1  0.555803  0.111068  0.579776  0  .  1
   S  S47  1  0.555265  0.444197  0.246443  0  .  1
   S  S48  1  0.888932  0.444735  0.913109  0  .  1
   S  S49  1  0.780214  0.893940  0.086754  0  .  1
   S  S50  1  0.106060  0.886273  0.420088  0  .  1
   S  S51  1  0.113727  0.219786  0.753421  0  .  1
   S  S52  1  0.886273  0.106060  0.579913  0  .  1
   S  S53  1  0.219786  0.113727  0.246579  0  .  1
   S  S54  1  0.893940  0.780214  0.913246  0  .  1
   Ni  Ni55  1  0.333272  0.000061  0.007497  0  .  1
   Ni  Ni56  1  0.999939  0.333211  0.340831  0  .  1
   Ni  Ni57  1  0.666789  0.666728  0.674164  0  .  1
   Ni  Ni58  1  0.333211  0.999939  0.659169  0  .  1
   Ni  Ni59  1  0.666728  0.666789  0.325836  0  .  1
   Ni  Ni60  1  0.000061  0.333272  0.992503  0  .  1
   Ni  Ni61  1  0.666715  0.989078  0.999970  0  .  1
   Ni  Ni62  1  0.010922  0.677637  0.333303  0  .  1
   Ni  Ni63  1  0.322363  0.333285  0.666637  0  .  1
   Ni  Ni64  1  0.677637  0.010922  0.666697  0  .  1
   Ni  Ni65  1  0.333285  0.322363  0.333363  0  .  1
   Ni  Ni66  1  0.989078  0.666715  0.000030  0  .  1
   Ni  Ni67  1  0.667489  0.345220  0.000309  0  .  1
   Ni  Ni68  1  0.654780  0.322269  0.333643  0  .  1
   Ni  Ni69  1  0.677731  0.332511  0.666976  0  .  1
   Ni  Ni70  1  0.322269  0.654780  0.666357  0  .  1
   Ni  Ni71  1  0.332511  0.677731  0.333024  0  .  1
   Ni  Ni72  1  0.345220  0.667489  0.999691  0  .  1
   Ni  Ni73  1  0.333172  0.000627  0.179854  0  .  1
   Ni  Ni74  1  0.999373  0.332545  0.513187  0  .  1
   Ni  Ni75  1  0.667455  0.666828  0.846521  0  .  1
   Ni  Ni76  1  0.332545  0.999373  0.486813  0  .  1
   Ni  Ni77  1  0.666828  0.667455  0.153479  0  .  1
   Ni  Ni78  1  0.000627  0.333172  0.820146  0  .  1
   Ni  Ni79  1  0.675040  0.008834  0.166658  0  .  1
   Ni  Ni80  1  0.991166  0.666206  0.499991  0  .  1
   Ni  Ni81  1  0.333794  0.324960  0.833325  0  .  1
   Ni  Ni82  1  0.666206  0.991166  0.500009  0  .  1
   Ni  Ni83  1  0.324960  0.333794  0.166675  0  .  1
   Ni  Ni84  1  0.008834  0.675040  0.833342  0  .  1
   Ni  Ni85  1  0.675256  0.333953  0.166982  0  .  1
   Ni  Ni86  1  0.666047  0.341303  0.500316  0  .  1
   Ni  Ni87  1  0.658697  0.324744  0.833649  0  .  1
   Ni  Ni88  1  0.341303  0.666047  0.499684  0  .  1
   Ni  Ni89  1  0.324744  0.658697  0.166351  0  .  1
   Ni  Ni90  1  0.333953  0.675256  0.833018  0  .  1
   Ni  Ni91  1  0.010603  0.000000  0.333333  0  .  1
   Ni  Ni92  1  0.000000  0.010603  0.666667  0  .  1
   Ni  Ni93  1  0.989397  0.989397  0.000000  0  .  1
   Ni  Ni94  1  0.655190  0.000000  0.333333  0  .  1
   Ni  Ni95  1  1.000000  0.655190  0.666667  0  .  1
   Ni  Ni96  1  0.344810  0.344810  0.000000  0  .  1
   Ni  Ni97  1  0.009236  0.000000  0.833333  0  .  1
   Ni  Ni98  1  0.000000  0.009236  0.166667  0  .  1
   Ni  Ni99  1  0.990764  0.990764  0.500000  0  .  1
   Ni  Ni100  1  0.334040  0.000000  0.833333  0  .  1
   Ni  Ni101  1  0.000000  0.334040  0.166667  0  .  1
   Ni  Ni102  1  0.665960  0.665960  0.500000  0  .  1
   Ni  Ni103  1  0.657870  0.000000  0.833333  0  .  1
   Ni  Ni104  1  1.000000  0.657870  0.166667  0  .  1
   Ni  Ni105  1  0.342130  0.342130  0.500000  0  .  1
 
