#\#CIF1.1
##########################################################################
#               Crystallographic Information Format file 
#               Produced by PyCifRW module
# 
#  This is a CIF file.  CIF has been adopted by the International
#  Union of Crystallography as the standard for data archiving and 
#  transmission.
#
#  For information on this file format, follow the CIF links at
#  http://www.iucr.org
##########################################################################

data_Ni2RhS4
_symmetry_space_group_name_H-M          'P 1'
_cell_length_a                          6.79262906667
_cell_length_b                          6.79262980163
_cell_length_c                          6.77329083
_cell_angle_alpha                       60.0941302103
_cell_angle_beta                        60.0941266447
_cell_angle_gamma                       60.3495752329
_chemical_name_systematic               'Generated by pymatgen'
_symmetry_Int_Tables_number             1
_chemical_formula_structural            Ni2RhS4
_chemical_formula_sum                   'Ni4 Rh2 S8'
_cell_volume                            221.878143694
_cell_formula_units_Z                   2
loop_
  _symmetry_equiv_pos_site_id
  _symmetry_equiv_pos_as_xyz
   1  'x, y, z'
 
loop_
  _atom_site_type_symbol
  _atom_site_label
  _atom_site_symmetry_multiplicity
  _atom_site_fract_x
  _atom_site_fract_y
  _atom_site_fract_z
  _atom_site_attached_hydrogens
  _atom_site_B_iso_or_equiv
  _atom_site_occupancy
   Ni  Ni1  1  0.000967  0.000967  0.999033  0  .  1
   Ni  Ni2  1  0.249033  0.249033  0.250967  0  .  1
   Ni  Ni3  1  0.625000  0.625000  0.125000  0  .  1
   Ni  Ni4  1  0.625000  0.625000  0.625000  0  .  1
   Rh  Rh5  1  0.125000  0.625000  0.625000  0  .  1
   Rh  Rh6  1  0.625000  0.125000  0.625000  0  .  1
   S  S7  1  0.385647  0.385647  0.373476  0  .  1
   S  S8  1  0.389480  0.855258  0.377631  0  .  1
   S  S9  1  0.385647  0.385647  0.855230  0  .  1
   S  S10  1  0.855258  0.389480  0.377631  0  .  1
   S  S11  1  0.394742  0.860520  0.872369  0  .  1
   S  S12  1  0.860520  0.394742  0.872369  0  .  1
   S  S13  1  0.864353  0.864353  0.394770  0  .  1
   S  S14  1  0.864353  0.864353  0.876524  0  .  1
 
