#\#CIF1.1
##########################################################################
#               Crystallographic Information Format file 
#               Produced by PyCifRW module
# 
#  This is a CIF file.  CIF has been adopted by the International
#  Union of Crystallography as the standard for data archiving and 
#  transmission.
#
#  For information on this file format, follow the CIF links at
#  http://www.iucr.org
##########################################################################

data_Ni2S
_symmetry_space_group_name_H-M          'P 1'
_cell_length_a                          4.67009518404
_cell_length_b                          2.86373659
_cell_length_c                          8.41648274
_cell_angle_alpha                       90.0
_cell_angle_beta                        154.303562416
_cell_angle_gamma                       72.1453298432
_chemical_name_systematic               'Generated by pymatgen'
_symmetry_Int_Tables_number             1
_chemical_formula_structural            Ni2S
_chemical_formula_sum                   'Ni2 S1'
_cell_volume                            34.5117337288
_cell_formula_units_Z                   1
loop_
  _symmetry_equiv_pos_site_id
  _symmetry_equiv_pos_as_xyz
   1  'x, y, z'
 
loop_
  _atom_site_type_symbol
  _atom_site_label
  _atom_site_symmetry_multiplicity
  _atom_site_fract_x
  _atom_site_fract_y
  _atom_site_fract_z
  _atom_site_attached_hydrogens
  _atom_site_B_iso_or_equiv
  _atom_site_occupancy
   Ni  Ni1  1  0.000000  0.000000  0.484551  0  .  1
   Ni  Ni2  1  0.000000  0.000000  0.182341  0  .  1
   S  S3  1  0.000000  0.000000  0.833107  0  .  1
 
