#\#CIF1.1
##########################################################################
#               Crystallographic Information Format file 
#               Produced by PyCifRW module
# 
#  This is a CIF file.  CIF has been adopted by the International
#  Union of Crystallography as the standard for data archiving and 
#  transmission.
#
#  For information on this file format, follow the CIF links at
#  http://www.iucr.org
##########################################################################

data_Ni3S4
_symmetry_space_group_name_H-M          'P 1'
_cell_length_a                          6.6736832377
_cell_length_b                          6.67368323446
_cell_length_c                          6.67368324
_cell_angle_alpha                       59.9999999725
_cell_angle_beta                        59.9999999886
_cell_angle_gamma                       59.9999999477
_chemical_name_systematic               'Generated by pymatgen'
_symmetry_Int_Tables_number             1
_chemical_formula_structural            Ni3S4
_chemical_formula_sum                   'Ni6 S8'
_cell_volume                            210.175345332
_cell_formula_units_Z                   2
loop_
  _symmetry_equiv_pos_site_id
  _symmetry_equiv_pos_as_xyz
   1  'x, y, z'
 
loop_
  _atom_site_type_symbol
  _atom_site_label
  _atom_site_symmetry_multiplicity
  _atom_site_fract_x
  _atom_site_fract_y
  _atom_site_fract_z
  _atom_site_attached_hydrogens
  _atom_site_B_iso_or_equiv
  _atom_site_occupancy
   S  S1  1  0.741393  0.741393  0.741393  0  .  1
   S  S2  1  0.258607  0.258607  0.724180  0  .  1
   S  S3  1  0.258607  0.724180  0.258607  0  .  1
   S  S4  1  0.724180  0.258607  0.258607  0  .  1
   S  S5  1  0.741393  0.275820  0.741393  0  .  1
   S  S6  1  0.275820  0.741393  0.741393  0  .  1
   S  S7  1  0.258607  0.258607  0.258607  0  .  1
   S  S8  1  0.741393  0.741393  0.275820  0  .  1
   Ni  Ni9  1  0.500000  0.000000  0.500000  0  .  1
   Ni  Ni10  1  0.000000  0.500000  0.500000  0  .  1
   Ni  Ni11  1  0.500000  0.500000  0.000000  0  .  1
   Ni  Ni12  1  0.500000  0.500000  0.500000  0  .  1
   Ni  Ni13  1  0.125000  0.125000  0.125000  0  .  1
   Ni  Ni14  1  0.875000  0.875000  0.875000  0  .  1
 
