#\#CIF1.1
##########################################################################
#               Crystallographic Information Format file 
#               Produced by PyCifRW module
# 
#  This is a CIF file.  CIF has been adopted by the International
#  Union of Crystallography as the standard for data archiving and 
#  transmission.
#
#  For information on this file format, follow the CIF links at
#  http://www.iucr.org
##########################################################################

data_Ni3Se4
_symmetry_space_group_name_H-M          'P 1'
_cell_length_a                          3.67400578574
_cell_length_b                          6.19680142175
_cell_length_c                          6.31849652777
_cell_angle_alpha                       120.122903455
_cell_angle_beta                        106.901915233
_cell_angle_gamma                       90.00000007
_chemical_name_systematic               'Generated by pymatgen'
_symmetry_Int_Tables_number             1
_chemical_formula_structural            Ni3Se4
_chemical_formula_sum                   'Ni3 Se4'
_cell_volume                            117.186834807
_cell_formula_units_Z                   1
loop_
  _symmetry_equiv_pos_site_id
  _symmetry_equiv_pos_as_xyz
   1  'x, y, z'
 
loop_
  _atom_site_type_symbol
  _atom_site_label
  _atom_site_symmetry_multiplicity
  _atom_site_fract_x
  _atom_site_fract_y
  _atom_site_fract_z
  _atom_site_attached_hydrogens
  _atom_site_B_iso_or_equiv
  _atom_site_occupancy
   Ni  Ni1  1  0.000000  0.000000  0.000000  0  .  1
   Ni  Ni2  1  0.259865  0.240554  0.519730  0  .  1
   Ni  Ni3  1  0.740135  0.759446  0.480270  0  .  1
   Se  Se4  1  0.118369  0.778876  0.236737  0  .  1
   Se  Se5  1  0.881631  0.221124  0.763263  0  .  1
   Se  Se6  1  0.635512  0.293814  0.271024  0  .  1
   Se  Se7  1  0.364488  0.706186  0.728976  0  .  1
 
