#\#CIF1.1
##########################################################################
#               Crystallographic Information Format file 
#               Produced by PyCifRW module
# 
#  This is a CIF file.  CIF has been adopted by the International
#  Union of Crystallography as the standard for data archiving and 
#  transmission.
#
#  For information on this file format, follow the CIF links at
#  http://www.iucr.org
##########################################################################

data_Ni6Se5
_symmetry_space_group_name_H-M          'P 1'
_cell_length_a                          6.86156342
_cell_length_b                          11.81228518
_cell_length_c                          17.01272076
_cell_angle_alpha                       90.0
_cell_angle_beta                        90.0
_cell_angle_gamma                       90.0
_chemical_name_systematic               'Generated by pymatgen'
_symmetry_Int_Tables_number             1
_chemical_formula_structural            Ni6Se5
_chemical_formula_sum                   'Ni48 Se40'
_cell_volume                            1378.89367332
_cell_formula_units_Z                   8
loop_
  _symmetry_equiv_pos_site_id
  _symmetry_equiv_pos_as_xyz
   1  'x, y, z'
 
loop_
  _atom_site_type_symbol
  _atom_site_label
  _atom_site_symmetry_multiplicity
  _atom_site_fract_x
  _atom_site_fract_y
  _atom_site_fract_z
  _atom_site_attached_hydrogens
  _atom_site_B_iso_or_equiv
  _atom_site_occupancy
   Ni  Ni1  1  0.127153  0.653478  0.995819  0  .  1
   Ni  Ni2  1  0.614256  0.458905  0.075856  0  .  1
   Ni  Ni3  1  0.865924  0.962131  0.927940  0  .  1
   Ni  Ni4  1  0.376704  0.283175  0.119957  0  .  1
   Ni  Ni5  1  0.370758  0.727787  0.377063  0  .  1
   Ni  Ni6  1  0.139248  0.192472  0.220563  0  .  1
   Ni  Ni7  1  0.366871  0.042474  0.430451  0  .  1
   Ni  Ni8  1  0.372847  0.153478  0.995819  0  .  1
   Ni  Ni9  1  0.133129  0.542474  0.430451  0  .  1
   Ni  Ni10  1  0.365924  0.962131  0.072060  0  .  1
   Ni  Ni11  1  0.612991  0.354959  0.494912  0  .  1
   Ni  Ni12  1  0.378416  0.326513  0.724423  0  .  1
   Ni  Ni13  1  0.633129  0.542474  0.569549  0  .  1
   Ni  Ni14  1  0.360752  0.692472  0.220563  0  .  1
   Ni  Ni15  1  0.878416  0.326513  0.275577  0  .  1
   Ni  Ni16  1  0.127107  0.990036  0.275592  0  .  1
   Ni  Ni17  1  0.887009  0.854959  0.494912  0  .  1
   Ni  Ni18  1  0.621584  0.826513  0.275577  0  .  1
   Ni  Ni19  1  0.108126  0.550472  0.577623  0  .  1
   Ni  Ni20  1  0.891874  0.050472  0.422377  0  .  1
   Ni  Ni21  1  0.129242  0.227787  0.377063  0  .  1
   Ni  Ni22  1  0.391874  0.050472  0.577623  0  .  1
   Ni  Ni23  1  0.108087  0.188675  0.776648  0  .  1
   Ni  Ni24  1  0.891913  0.688675  0.223352  0  .  1
   Ni  Ni25  1  0.639248  0.192472  0.779437  0  .  1
   Ni  Ni26  1  0.372893  0.490036  0.275592  0  .  1
   Ni  Ni27  1  0.385744  0.958905  0.924144  0  .  1
   Ni  Ni28  1  0.860752  0.692472  0.779437  0  .  1
   Ni  Ni29  1  0.123296  0.783175  0.119957  0  .  1
   Ni  Ni30  1  0.608126  0.550472  0.422377  0  .  1
   Ni  Ni31  1  0.885744  0.958905  0.075856  0  .  1
   Ni  Ni32  1  0.623296  0.783175  0.880043  0  .  1
   Ni  Ni33  1  0.134076  0.462131  0.072060  0  .  1
   Ni  Ni34  1  0.876704  0.283175  0.880043  0  .  1
   Ni  Ni35  1  0.627153  0.653478  0.004181  0  .  1
   Ni  Ni36  1  0.112991  0.354959  0.505088  0  .  1
   Ni  Ni37  1  0.872893  0.490036  0.724408  0  .  1
   Ni  Ni38  1  0.870758  0.727787  0.622937  0  .  1
   Ni  Ni39  1  0.608087  0.188675  0.223352  0  .  1
   Ni  Ni40  1  0.634076  0.462131  0.927940  0  .  1
   Ni  Ni41  1  0.114256  0.458905  0.924144  0  .  1
   Ni  Ni42  1  0.627107  0.990036  0.724408  0  .  1
   Ni  Ni43  1  0.387009  0.854959  0.505088  0  .  1
   Ni  Ni44  1  0.121584  0.826513  0.724423  0  .  1
   Ni  Ni45  1  0.629242  0.227787  0.622937  0  .  1
   Ni  Ni46  1  0.866871  0.042474  0.569549  0  .  1
   Ni  Ni47  1  0.391913  0.688675  0.776648  0  .  1
   Ni  Ni48  1  0.872847  0.153478  0.004181  0  .  1
   Se  Se49  1  0.110643  0.385624  0.796633  0  .  1
   Se  Se50  1  0.127894  0.625813  0.307017  0  .  1
   Se  Se51  1  0.872106  0.125813  0.692983  0  .  1
   Se  Se52  1  0.873721  0.130355  0.298334  0  .  1
   Se  Se53  1  0.629235  0.114693  0.904418  0  .  1
   Se  Se54  1  0.625039  0.152124  0.492782  0  .  1
   Se  Se55  1  0.617562  0.107446  0.098928  0  .  1
   Se  Se56  1  0.633444  0.905952  0.400521  0  .  1
   Se  Se57  1  0.370765  0.614693  0.095582  0  .  1
   Se  Se58  1  0.372106  0.125813  0.307017  0  .  1
   Se  Se59  1  0.133444  0.905952  0.599479  0  .  1
   Se  Se60  1  0.117562  0.107446  0.901072  0  .  1
   Se  Se61  1  0.626279  0.630355  0.298334  0  .  1
   Se  Se62  1  0.356898  0.385328  0.400438  0  .  1
   Se  Se63  1  0.125039  0.152124  0.507218  0  .  1
   Se  Se64  1  0.366556  0.405952  0.599479  0  .  1
   Se  Se65  1  0.627894  0.625813  0.692983  0  .  1
   Se  Se66  1  0.882438  0.607446  0.098928  0  .  1
   Se  Se67  1  0.610643  0.385624  0.203367  0  .  1
   Se  Se68  1  0.874961  0.652124  0.492782  0  .  1
   Se  Se69  1  0.389357  0.885624  0.796633  0  .  1
   Se  Se70  1  0.639254  0.388161  0.800287  0  .  1
   Se  Se71  1  0.866556  0.405952  0.400521  0  .  1
   Se  Se72  1  0.860746  0.888161  0.800287  0  .  1
   Se  Se73  1  0.143102  0.885328  0.400438  0  .  1
   Se  Se74  1  0.373721  0.130355  0.701666  0  .  1
   Se  Se75  1  0.125928  0.856028  0.990013  0  .  1
   Se  Se76  1  0.856898  0.385328  0.599562  0  .  1
   Se  Se77  1  0.874072  0.356028  0.009987  0  .  1
   Se  Se78  1  0.625928  0.856028  0.009987  0  .  1
   Se  Se79  1  0.126279  0.630355  0.701666  0  .  1
   Se  Se80  1  0.360746  0.888161  0.199713  0  .  1
   Se  Se81  1  0.374961  0.652124  0.507218  0  .  1
   Se  Se82  1  0.129235  0.114693  0.095582  0  .  1
   Se  Se83  1  0.889357  0.885624  0.203367  0  .  1
   Se  Se84  1  0.382438  0.607446  0.901072  0  .  1
   Se  Se85  1  0.870765  0.614693  0.904418  0  .  1
   Se  Se86  1  0.139254  0.388161  0.199713  0  .  1
   Se  Se87  1  0.374072  0.356028  0.990013  0  .  1
   Se  Se88  1  0.643102  0.885328  0.599562  0  .  1
 
