#\#CIF1.1
##########################################################################
#               Crystallographic Information Format file 
#               Produced by PyCifRW module
# 
#  This is a CIF file.  CIF has been adopted by the International
#  Union of Crystallography as the standard for data archiving and 
#  transmission.
#
#  For information on this file format, follow the CIF links at
#  http://www.iucr.org
##########################################################################

data_O2
_symmetry_space_group_name_H-M          'P 1'
_cell_length_a                          2.41323075551
_cell_length_b                          2.41460053728
_cell_length_c                          4.17926160767
_cell_angle_alpha                       102.72581502
_cell_angle_beta                        103.168642521
_cell_angle_gamma                       103.056089916
_chemical_name_systematic               'Generated by pymatgen'
_symmetry_Int_Tables_number             1
_chemical_formula_structural            O2
_chemical_formula_sum                   O2
_cell_volume                            22.1308715982
_cell_formula_units_Z                   1
loop_
  _symmetry_equiv_pos_site_id
  _symmetry_equiv_pos_as_xyz
   1  'x, y, z'
 
loop_
  _atom_site_type_symbol
  _atom_site_label
  _atom_site_symmetry_multiplicity
  _atom_site_fract_x
  _atom_site_fract_y
  _atom_site_fract_z
  _atom_site_attached_hydrogens
  _atom_site_B_iso_or_equiv
  _atom_site_occupancy
   O  O1  1  0.906127  0.915695  0.829468  0  .  1
   O  O2  1  0.064002  0.072045  0.145076  0  .  1
 
