#\#CIF1.1
##########################################################################
#               Crystallographic Information Format file 
#               Produced by PyCifRW module
# 
#  This is a CIF file.  CIF has been adopted by the International
#  Union of Crystallography as the standard for data archiving and 
#  transmission.
#
#  For information on this file format, follow the CIF links at
#  http://www.iucr.org
##########################################################################

data_PbI2
_symmetry_space_group_name_H-M          'P 1'
_cell_length_a                          22.1118808768
_cell_length_b                          22.1118809159
_cell_length_c                          22.1118812698
_cell_angle_alpha                       12.1558007218
_cell_angle_beta                        12.1558002969
_cell_angle_gamma                       12.1558002561
_chemical_name_systematic               'Generated by pymatgen'
_symmetry_Int_Tables_number             1
_chemical_formula_structural            PbI2
_chemical_formula_sum                   'Pb3 I6'
_cell_volume                            416.705852852
_cell_formula_units_Z                   3
loop_
  _symmetry_equiv_pos_site_id
  _symmetry_equiv_pos_as_xyz
   1  'x, y, z'
 
loop_
  _atom_site_type_symbol
  _atom_site_label
  _atom_site_symmetry_multiplicity
  _atom_site_fract_x
  _atom_site_fract_y
  _atom_site_fract_z
  _atom_site_attached_hydrogens
  _atom_site_B_iso_or_equiv
  _atom_site_occupancy
   Pb  Pb1  1  0.000000  0.000000  0.000000  0  .  1
   Pb  Pb2  1  0.555540  0.555540  0.555540  0  .  1
   Pb  Pb3  1  0.444460  0.444460  0.444460  0  .  1
   I  I4  1  0.082343  0.082343  0.082343  0  .  1
   I  I5  1  0.304581  0.304581  0.304581  0  .  1
   I  I6  1  0.806587  0.806587  0.806587  0  .  1
   I  I7  1  0.193413  0.193413  0.193413  0  .  1
   I  I8  1  0.917657  0.917657  0.917657  0  .  1
   I  I9  1  0.695419  0.695419  0.695419  0  .  1
 
