#\#CIF1.1
##########################################################################
#               Crystallographic Information Format file 
#               Produced by PyCifRW module
# 
#  This is a CIF file.  CIF has been adopted by the International
#  Union of Crystallography as the standard for data archiving and 
#  transmission.
#
#  For information on this file format, follow the CIF links at
#  http://www.iucr.org
##########################################################################

data_Pr(AlGa)2
_symmetry_space_group_name_H-M          'P 1'
_cell_length_a                          4.25459733601
_cell_length_b                          4.25460861649
_cell_length_c                          6.35740796214
_cell_angle_alpha                       109.616488012
_cell_angle_beta                        109.616213861
_cell_angle_gamma                       89.9293897844
_chemical_name_systematic               'Generated by pymatgen'
_symmetry_Int_Tables_number             1
_chemical_formula_structural            Pr(AlGa)2
_chemical_formula_sum                   'Pr1 Al2 Ga2'
_cell_volume                            101.300072469
_cell_formula_units_Z                   1
loop_
  _symmetry_equiv_pos_site_id
  _symmetry_equiv_pos_as_xyz
   1  'x, y, z'
 
loop_
  _atom_site_type_symbol
  _atom_site_label
  _atom_site_symmetry_multiplicity
  _atom_site_fract_x
  _atom_site_fract_y
  _atom_site_fract_z
  _atom_site_attached_hydrogens
  _atom_site_B_iso_or_equiv
  _atom_site_occupancy
   Pr  Pr1  1  0.000000  0.000000  0.000000  0  .  1
   Al  Al2  1  0.250002  0.749999  0.500000  0  .  1
   Al  Al3  1  0.749998  0.250001  0.500000  0  .  1
   Ga  Ga4  1  0.612580  0.612581  0.225235  0  .  1
   Ga  Ga5  1  0.387420  0.387419  0.774765  0  .  1
 
