#\#CIF1.1
##########################################################################
#               Crystallographic Information Format file 
#               Produced by PyCifRW module
# 
#  This is a CIF file.  CIF has been adopted by the International
#  Union of Crystallography as the standard for data archiving and 
#  transmission.
#
#  For information on this file format, follow the CIF links at
#  http://www.iucr.org
##########################################################################

data_Pr(CoAs)2
_symmetry_space_group_name_H-M          'P 1'
_cell_length_a                          4.05728137272
_cell_length_b                          4.05728098998
_cell_length_c                          5.94670885424
_cell_angle_alpha                       109.946135943
_cell_angle_beta                        109.946134009
_cell_angle_gamma                       90.0000024718
_chemical_name_systematic               'Generated by pymatgen'
_symmetry_Int_Tables_number             1
_chemical_formula_structural            Pr(CoAs)2
_chemical_formula_sum                   'Pr1 Co2 As2'
_cell_volume                            85.7463835829
_cell_formula_units_Z                   1
loop_
  _symmetry_equiv_pos_site_id
  _symmetry_equiv_pos_as_xyz
   1  'x, y, z'
 
loop_
  _atom_site_type_symbol
  _atom_site_label
  _atom_site_symmetry_multiplicity
  _atom_site_fract_x
  _atom_site_fract_y
  _atom_site_fract_z
  _atom_site_attached_hydrogens
  _atom_site_B_iso_or_equiv
  _atom_site_occupancy
   Pr  Pr1  1  0.000000  0.000000  0.000000  0  .  1
   Co  Co2  1  0.250000  0.750000  0.500000  0  .  1
   Co  Co3  1  0.750000  0.250000  0.500000  0  .  1
   As  As4  1  0.363050  0.363050  0.726100  0  .  1
   As  As5  1  0.636950  0.636950  0.273900  0  .  1
 
