#\#CIF1.1
##########################################################################
#               Crystallographic Information Format file 
#               Produced by PyCifRW module
# 
#  This is a CIF file.  CIF has been adopted by the International
#  Union of Crystallography as the standard for data archiving and 
#  transmission.
#
#  For information on this file format, follow the CIF links at
#  http://www.iucr.org
##########################################################################

data_Pr(GeRh)2
_symmetry_space_group_name_H-M          'P 1'
_cell_length_a                          4.19481924413
_cell_length_b                          4.19481924139
_cell_length_c                          6.07972432172
_cell_angle_alpha                       110.180839199
_cell_angle_beta                        110.180839122
_cell_angle_gamma                       90.0000000993
_chemical_name_systematic               'Generated by pymatgen'
_symmetry_Int_Tables_number             1
_chemical_formula_structural            Pr(GeRh)2
_chemical_formula_sum                   'Pr1 Ge2 Rh2'
_cell_volume                            93.3855733926
_cell_formula_units_Z                   1
loop_
  _symmetry_equiv_pos_site_id
  _symmetry_equiv_pos_as_xyz
   1  'x, y, z'
 
loop_
  _atom_site_type_symbol
  _atom_site_label
  _atom_site_symmetry_multiplicity
  _atom_site_fract_x
  _atom_site_fract_y
  _atom_site_fract_z
  _atom_site_attached_hydrogens
  _atom_site_B_iso_or_equiv
  _atom_site_occupancy
   Ge  Ge1  1  0.624866  0.624866  0.249732  0  .  1
   Ge  Ge2  1  0.375134  0.375134  0.750268  0  .  1
   Rh  Rh3  1  0.250000  0.750000  0.500000  0  .  1
   Rh  Rh4  1  0.750000  0.250000  0.500000  0  .  1
   Pr  Pr5  1  0.000000  0.000000  0.000000  0  .  1
 
