#\#CIF1.1
##########################################################################
#               Crystallographic Information Format file 
#               Produced by PyCifRW module
# 
#  This is a CIF file.  CIF has been adopted by the International
#  Union of Crystallography as the standard for data archiving and 
#  transmission.
#
#  For information on this file format, follow the CIF links at
#  http://www.iucr.org
##########################################################################

data_RbBaMnO4
_symmetry_space_group_name_H-M          'P 1'
_cell_length_a                          5.98627091
_cell_length_b                          8.01923312
_cell_length_c                          10.50710663
_cell_angle_alpha                       90.0
_cell_angle_beta                        90.0
_cell_angle_gamma                       90.0
_chemical_name_systematic               'Generated by pymatgen'
_symmetry_Int_Tables_number             1
_chemical_formula_structural            RbBaMnO4
_chemical_formula_sum                   'Rb4 Ba4 Mn4 O16'
_cell_volume                            504.39682636
_cell_formula_units_Z                   4
loop_
  _symmetry_equiv_pos_site_id
  _symmetry_equiv_pos_as_xyz
   1  'x, y, z'
 
loop_
  _atom_site_type_symbol
  _atom_site_label
  _atom_site_symmetry_multiplicity
  _atom_site_fract_x
  _atom_site_fract_y
  _atom_site_fract_z
  _atom_site_attached_hydrogens
  _atom_site_B_iso_or_equiv
  _atom_site_occupancy
   O  O1  1  0.512042  0.708668  0.336686  0  .  1
   O  O2  1  0.012043  0.291331  0.663313  0  .  1
   O  O3  1  0.987958  0.208669  0.163313  0  .  1
   O  O4  1  0.487958  0.791331  0.836686  0  .  1
   O  O5  1  0.487958  0.291331  0.663313  0  .  1
   O  O6  1  0.987958  0.708668  0.336686  0  .  1
   O  O7  1  0.012043  0.791331  0.836686  0  .  1
   O  O8  1  0.512042  0.208669  0.163313  0  .  1
   O  O9  1  0.250000  0.514922  0.923410  0  .  1
   O  O10  1  0.749999  0.485078  0.076590  0  .  1
   O  O11  1  0.250000  0.014922  0.576590  0  .  1
   O  O12  1  0.749999  0.985079  0.423411  0  .  1
   O  O13  1  0.749999  0.194939  0.931077  0  .  1
   O  O14  1  0.250000  0.805061  0.068923  0  .  1
   O  O15  1  0.250000  0.305061  0.431078  0  .  1
   O  O16  1  0.749999  0.694938  0.568923  0  .  1
   Mn  Mn17  1  0.749999  0.771493  0.415151  0  .  1
   Mn  Mn18  1  0.250000  0.228506  0.584849  0  .  1
   Mn  Mn19  1  0.749999  0.271494  0.084849  0  .  1
   Mn  Mn20  1  0.250000  0.728507  0.915152  0  .  1
   Rb  Rb21  1  0.250000  0.655420  0.582091  0  .  1
   Rb  Rb22  1  0.749999  0.344580  0.417909  0  .  1
   Rb  Rb23  1  0.749999  0.844581  0.082092  0  .  1
   Rb  Rb24  1  0.250000  0.155420  0.917909  0  .  1
   Ba  Ba25  1  0.749999  0.002182  0.691822  0  .  1
   Ba  Ba26  1  0.250000  0.997818  0.308177  0  .  1
   Ba  Ba27  1  0.749999  0.502181  0.808178  0  .  1
   Ba  Ba28  1  0.250000  0.497818  0.191822  0  .  1
 
