#\#CIF1.1
##########################################################################
#               Crystallographic Information Format file 
#               Produced by PyCifRW module
# 
#  This is a CIF file.  CIF has been adopted by the International
#  Union of Crystallography as the standard for data archiving and 
#  transmission.
#
#  For information on this file format, follow the CIF links at
#  http://www.iucr.org
##########################################################################

data_SbI3
_symmetry_space_group_name_H-M          'P 1'
_cell_length_a                          8.82592365214
_cell_length_b                          8.82592365771
_cell_length_c                          8.82592366172
_cell_angle_alpha                       51.4859764266
_cell_angle_beta                        51.4859764684
_cell_angle_gamma                       51.4859763887
_chemical_name_systematic               'Generated by pymatgen'
_symmetry_Int_Tables_number             1
_chemical_formula_structural            SbI3
_chemical_formula_sum                   'Sb2 I6'
_cell_volume                            388.694376954
_cell_formula_units_Z                   2
loop_
  _symmetry_equiv_pos_site_id
  _symmetry_equiv_pos_as_xyz
   1  'x, y, z'
 
loop_
  _atom_site_type_symbol
  _atom_site_label
  _atom_site_symmetry_multiplicity
  _atom_site_fract_x
  _atom_site_fract_y
  _atom_site_fract_z
  _atom_site_attached_hydrogens
  _atom_site_B_iso_or_equiv
  _atom_site_occupancy
   Sb  Sb1  1  0.167933  0.167933  0.167933  0  .  1
   Sb  Sb2  1  0.832067  0.832067  0.832067  0  .  1
   I  I3  1  0.424564  0.064446  0.775087  0  .  1
   I  I4  1  0.775087  0.424564  0.064446  0  .  1
   I  I5  1  0.064446  0.775087  0.424564  0  .  1
   I  I6  1  0.575436  0.935554  0.224913  0  .  1
   I  I7  1  0.224913  0.575436  0.935554  0  .  1
   I  I8  1  0.935554  0.224913  0.575436  0  .  1
 
