#\#CIF1.1
##########################################################################
#               Crystallographic Information Format file 
#               Produced by PyCifRW module
# 
#  This is a CIF file.  CIF has been adopted by the International
#  Union of Crystallography as the standard for data archiving and 
#  transmission.
#
#  For information on this file format, follow the CIF links at
#  http://www.iucr.org
##########################################################################

data_ScCl3
_symmetry_space_group_name_H-M          'P 1'
_cell_length_a                          7.45305530702
_cell_length_b                          7.45305530936
_cell_length_c                          7.45305530322
_cell_angle_alpha                       51.6480870601
_cell_angle_beta                        51.6480870842
_cell_angle_gamma                       51.648087136
_chemical_name_systematic               'Generated by pymatgen'
_symmetry_Int_Tables_number             1
_chemical_formula_structural            ScCl3
_chemical_formula_sum                   'Sc2 Cl6'
_cell_volume                            235.204384211
_cell_formula_units_Z                   2
loop_
  _symmetry_equiv_pos_site_id
  _symmetry_equiv_pos_as_xyz
   1  'x, y, z'
 
loop_
  _atom_site_type_symbol
  _atom_site_label
  _atom_site_symmetry_multiplicity
  _atom_site_fract_x
  _atom_site_fract_y
  _atom_site_fract_z
  _atom_site_attached_hydrogens
  _atom_site_B_iso_or_equiv
  _atom_site_occupancy
   Cl  Cl1  1  0.556066  0.294736  0.926265  0  .  1
   Cl  Cl2  1  0.294736  0.926265  0.556066  0  .  1
   Cl  Cl3  1  0.073735  0.443934  0.705264  0  .  1
   Cl  Cl4  1  0.705264  0.073735  0.443934  0  .  1
   Cl  Cl5  1  0.443934  0.705264  0.073735  0  .  1
   Cl  Cl6  1  0.926265  0.556066  0.294736  0  .  1
   Sc  Sc7  1  0.666064  0.666064  0.666064  0  .  1
   Sc  Sc8  1  0.333936  0.333936  0.333936  0  .  1
 
