#\#CIF1.1
##########################################################################
#               Crystallographic Information Format file 
#               Produced by PyCifRW module
# 
#  This is a CIF file.  CIF has been adopted by the International
#  Union of Crystallography as the standard for data archiving and 
#  transmission.
#
#  For information on this file format, follow the CIF links at
#  http://www.iucr.org
##########################################################################

data_Sm(NiGe)2
_symmetry_space_group_name_H-M          'P 1'
_cell_length_a                          4.11412764675
_cell_length_b                          4.11412764657
_cell_length_c                          5.71622891584
_cell_angle_alpha                       111.091831353
_cell_angle_beta                        111.091831435
_cell_angle_gamma                       90.000000031
_chemical_name_systematic               'Generated by pymatgen'
_symmetry_Int_Tables_number             1
_chemical_formula_structural            Sm(NiGe)2
_chemical_formula_sum                   'Sm1 Ni2 Ge2'
_cell_volume                            83.2862096305
_cell_formula_units_Z                   1
loop_
  _symmetry_equiv_pos_site_id
  _symmetry_equiv_pos_as_xyz
   1  'x, y, z'
 
loop_
  _atom_site_type_symbol
  _atom_site_label
  _atom_site_symmetry_multiplicity
  _atom_site_fract_x
  _atom_site_fract_y
  _atom_site_fract_z
  _atom_site_attached_hydrogens
  _atom_site_B_iso_or_equiv
  _atom_site_occupancy
   Ni  Ni1  1  0.750000  0.250000  0.500000  0  .  1
   Ni  Ni2  1  0.250000  0.750000  0.500000  0  .  1
   Ge  Ge3  1  0.630453  0.630453  0.260905  0  .  1
   Ge  Ge4  1  0.369547  0.369547  0.739095  0  .  1
   Sm  Sm5  1  0.000000  0.000000  0.000000  0  .  1
 
