#\#CIF1.1
##########################################################################
#               Crystallographic Information Format file 
#               Produced by PyCifRW module
# 
#  This is a CIF file.  CIF has been adopted by the International
#  Union of Crystallography as the standard for data archiving and 
#  transmission.
#
#  For information on this file format, follow the CIF links at
#  http://www.iucr.org
##########################################################################

data_Sr(AsRh)2
_symmetry_space_group_name_H-M          'P 1'
_cell_length_a                          4.1082149849
_cell_length_b                          4.10849068972
_cell_length_c                          6.67774786047
_cell_angle_alpha                       107.921818016
_cell_angle_beta                        107.9507992
_cell_angle_gamma                       89.9341949215
_chemical_name_systematic               'Generated by pymatgen'
_symmetry_Int_Tables_number             1
_chemical_formula_structural            Sr(AsRh)2
_chemical_formula_sum                   'Sr1 As2 Rh2'
_cell_volume                            101.473404961
_cell_formula_units_Z                   1
loop_
  _symmetry_equiv_pos_site_id
  _symmetry_equiv_pos_as_xyz
   1  'x, y, z'
 
loop_
  _atom_site_type_symbol
  _atom_site_label
  _atom_site_symmetry_multiplicity
  _atom_site_fract_x
  _atom_site_fract_y
  _atom_site_fract_z
  _atom_site_attached_hydrogens
  _atom_site_B_iso_or_equiv
  _atom_site_occupancy
   Sr  Sr1  1  0.000000  0.000000  0.000000  0  .  1
   As  As2  1  0.365209  0.364944  0.730086  0  .  1
   As  As3  1  0.634791  0.635056  0.269914  0  .  1
   Rh  Rh4  1  0.749984  0.249941  0.499938  0  .  1
   Rh  Rh5  1  0.250016  0.750059  0.500062  0  .  1
 
