#\#CIF1.1
##########################################################################
#               Crystallographic Information Format file 
#               Produced by PyCifRW module
# 
#  This is a CIF file.  CIF has been adopted by the International
#  Union of Crystallography as the standard for data archiving and 
#  transmission.
#
#  For information on this file format, follow the CIF links at
#  http://www.iucr.org
##########################################################################

data_Sr(CdGa)2
_symmetry_space_group_name_H-M          'P 1'
_cell_length_a                          4.6035640375
_cell_length_b                          4.60356403737
_cell_length_c                          6.60588941545
_cell_angle_alpha                       110.39216789
_cell_angle_beta                        110.392167922
_cell_angle_gamma                       90.0000000538
_chemical_name_systematic               'Generated by pymatgen'
_symmetry_Int_Tables_number             1
_chemical_formula_structural            Sr(CdGa)2
_chemical_formula_sum                   'Sr1 Cd2 Ga2'
_cell_volume                            121.819672461
_cell_formula_units_Z                   1
loop_
  _symmetry_equiv_pos_site_id
  _symmetry_equiv_pos_as_xyz
   1  'x, y, z'
 
loop_
  _atom_site_type_symbol
  _atom_site_label
  _atom_site_symmetry_multiplicity
  _atom_site_fract_x
  _atom_site_fract_y
  _atom_site_fract_z
  _atom_site_attached_hydrogens
  _atom_site_B_iso_or_equiv
  _atom_site_occupancy
   Ga  Ga1  1  0.609389  0.609389  0.218778  0  .  1
   Ga  Ga2  1  0.390611  0.390611  0.781222  0  .  1
   Sr  Sr3  1  0.000000  0.000000  0.000000  0  .  1
   Cd  Cd4  1  0.750000  0.250000  0.500000  0  .  1
   Cd  Cd5  1  0.250000  0.750000  0.500000  0  .  1
 
