#\#CIF1.1
##########################################################################
#               Crystallographic Information Format file 
#               Produced by PyCifRW module
# 
#  This is a CIF file.  CIF has been adopted by the International
#  Union of Crystallography as the standard for data archiving and 
#  transmission.
#
#  For information on this file format, follow the CIF links at
#  http://www.iucr.org
##########################################################################

data_Sr(ZnGe)2
_symmetry_space_group_name_H-M          'P 1'
_cell_length_a                          4.45687168449
_cell_length_b                          4.45687168689
_cell_length_c                          6.1706813854
_cell_angle_alpha                       111.169785319
_cell_angle_beta                        111.169785366
_cell_angle_gamma                       90.0000000819
_chemical_name_systematic               'Generated by pymatgen'
_symmetry_Int_Tables_number             1
_chemical_formula_structural            Sr(ZnGe)2
_chemical_formula_sum                   'Sr1 Zn2 Ge2'
_cell_volume                            105.381507696
_cell_formula_units_Z                   1
loop_
  _symmetry_equiv_pos_site_id
  _symmetry_equiv_pos_as_xyz
   1  'x, y, z'
 
loop_
  _atom_site_type_symbol
  _atom_site_label
  _atom_site_symmetry_multiplicity
  _atom_site_fract_x
  _atom_site_fract_y
  _atom_site_fract_z
  _atom_site_attached_hydrogens
  _atom_site_B_iso_or_equiv
  _atom_site_occupancy
   Zn  Zn1  1  0.750000  0.250000  0.500000  0  .  1
   Zn  Zn2  1  0.250000  0.750000  0.500000  0  .  1
   Ge  Ge3  1  0.620724  0.620724  0.241448  0  .  1
   Ge  Ge4  1  0.379276  0.379276  0.758552  0  .  1
   Sr  Sr5  1  0.000000  0.000000  0.000000  0  .  1
 
