#\#CIF1.1
##########################################################################
#               Crystallographic Information Format file 
#               Produced by PyCifRW module
# 
#  This is a CIF file.  CIF has been adopted by the International
#  Union of Crystallography as the standard for data archiving and 
#  transmission.
#
#  For information on this file format, follow the CIF links at
#  http://www.iucr.org
##########################################################################

data_Sr12Co10O27
_symmetry_space_group_name_H-M          'P 1'
_cell_length_a                          14.1654232055
_cell_length_b                          10.2868077745
_cell_length_c                          10.3073368698
_cell_angle_alpha                       55.6948429854
_cell_angle_beta                        42.4797781184
_cell_angle_gamma                       43.0081079749
_chemical_name_systematic               'Generated by pymatgen'
_symmetry_Int_Tables_number             1
_chemical_formula_structural            Sr12Co10O27
_chemical_formula_sum                   'Sr12 Co10 O27'
_cell_volume                            690.903556964
_cell_formula_units_Z                   1
loop_
  _symmetry_equiv_pos_site_id
  _symmetry_equiv_pos_as_xyz
   1  'x, y, z'
 
loop_
  _atom_site_type_symbol
  _atom_site_label
  _atom_site_symmetry_multiplicity
  _atom_site_fract_x
  _atom_site_fract_y
  _atom_site_fract_z
  _atom_site_attached_hydrogens
  _atom_site_B_iso_or_equiv
  _atom_site_occupancy
   Sr  Sr1  1  0.101014  0.443300  0.085224  0  .  1
   Sr  Sr2  1  0.038182  0.273970  0.558827  0  .  1
   Sr  Sr3  1  0.326878  0.092675  0.718848  0  .  1
   Sr  Sr4  1  0.185906  0.903460  0.267711  0  .  1
   Sr  Sr5  1  0.597849  0.445729  0.091229  0  .  1
   Sr  Sr6  1  0.536313  0.272115  0.563941  0  .  1
   Sr  Sr7  1  0.467512  0.723131  0.433341  0  .  1
   Sr  Sr8  1  0.419546  0.540871  0.907920  0  .  1
   Sr  Sr9  1  0.811744  0.095183  0.732752  0  .  1
   Sr  Sr10  1  0.677709  0.907751  0.271680  0  .  1
   Sr  Sr11  1  0.956342  0.716495  0.458087  0  .  1
   Sr  Sr12  1  0.895202  0.561181  0.919448  0  .  1
   Co  Co13  1  0.424292  0.112152  0.125771  0  .  1
   Co  Co14  1  0.351149  0.302349  0.304139  0  .  1
   Co  Co15  1  0.248430  0.501510  0.498727  0  .  1
   Co  Co16  1  0.149092  0.692851  0.683274  0  .  1
   Co  Co17  1  0.057336  0.887794  0.870661  0  .  1
   Co  Co18  1  0.932209  0.131067  0.118145  0  .  1
   Co  Co19  1  0.843091  0.312638  0.315938  0  .  1
   Co  Co20  1  0.749546  0.501104  0.499591  0  .  1
   Co  Co21  1  0.645665  0.696364  0.700547  0  .  1
   Co  Co22  1  0.574374  0.891071  0.874996  0  .  1
   O  O23  1  0.064589  0.194787  0.035496  0  .  1
   O  O24  1  0.234321  0.360543  0.210399  0  .  1
   O  O25  1  0.386190  0.049203  0.373878  0  .  1
   O  O26  1  0.145108  0.389988  0.574802  0  .  1
   O  O27  1  0.558796  0.199252  0.056221  0  .  1
   O  O28  1  0.281423  0.572945  0.254349  0  .  1
   O  O29  1  0.027768  0.750202  0.604433  0  .  1
   O  O30  1  0.466194  0.255406  0.395693  0  .  1
   O  O31  1  0.214111  0.432499  0.745411  0  .  1
   O  O32  1  0.356840  0.608141  0.420020  0  .  1
   O  O33  1  0.109636  0.949925  0.617127  0  .  1
   O  O34  1  0.421736  0.149541  0.926244  0  .  1
   O  O35  1  0.250111  0.654915  0.817250  0  .  1
   O  O36  1  0.730147  0.382672  0.217566  0  .  1
   O  O37  1  0.576827  0.855179  0.072739  0  .  1
   O  O38  1  0.899149  0.034654  0.353681  0  .  1
   O  O39  1  0.640780  0.390536  0.583364  0  .  1
   O  O40  1  0.786244  0.577027  0.253709  0  .  1
   O  O41  1  0.534702  0.746256  0.602849  0  .  1
   O  O42  1  0.968305  0.247565  0.386094  0  .  1
   O  O43  1  0.720470  0.421248  0.744031  0  .  1
   O  O44  1  0.439576  0.793604  0.943533  0  .  1
   O  O45  1  0.854032  0.608603  0.429445  0  .  1
   O  O46  1  0.613236  0.949835  0.630275  0  .  1
   O  O47  1  0.914234  0.119253  0.965572  0  .  1
   O  O48  1  0.758952  0.638163  0.799736  0  .  1
   O  O49  1  0.937643  0.801298  0.947289  0  .  1
 
