#\#CIF1.1
##########################################################################
#               Crystallographic Information Format file 
#               Produced by PyCifRW module
# 
#  This is a CIF file.  CIF has been adopted by the International
#  Union of Crystallography as the standard for data archiving and 
#  transmission.
#
#  For information on this file format, follow the CIF links at
#  http://www.iucr.org
##########################################################################

data_Sr12Mn6O23
_symmetry_space_group_name_H-M          'P 1'
_cell_length_a                          8.80423351406
_cell_length_b                          8.67701618868
_cell_length_c                          8.8020417506
_cell_angle_alpha                       119.564462845
_cell_angle_beta                        82.944696605
_cell_angle_gamma                       84.3506315021
_chemical_name_systematic               'Generated by pymatgen'
_symmetry_Int_Tables_number             1
_chemical_formula_structural            Sr12Mn6O23
_chemical_formula_sum                   'Sr12 Mn6 O23'
_cell_volume                            570.512250446
_cell_formula_units_Z                   1
loop_
  _symmetry_equiv_pos_site_id
  _symmetry_equiv_pos_as_xyz
   1  'x, y, z'
 
loop_
  _atom_site_type_symbol
  _atom_site_label
  _atom_site_symmetry_multiplicity
  _atom_site_fract_x
  _atom_site_fract_y
  _atom_site_fract_z
  _atom_site_attached_hydrogens
  _atom_site_B_iso_or_equiv
  _atom_site_occupancy
   Sr  Sr1  1  0.451852  0.072320  0.833304  0  .  1
   Sr  Sr2  1  0.047151  0.415618  0.658751  0  .  1
   Sr  Sr3  1  0.119516  0.084382  0.174582  0  .  1
   Sr  Sr4  1  0.714814  0.427680  0.000029  0  .  1
   Sr  Sr5  1  0.623573  0.568577  0.664956  0  .  1
   Sr  Sr6  1  0.214405  0.928858  0.496782  0  .  1
   Sr  Sr7  1  0.782841  0.074529  0.500963  0  .  1
   Sr  Sr8  1  0.383825  0.425471  0.332371  0  .  1
   Sr  Sr9  1  0.293917  0.562765  0.002834  0  .  1
   Sr  Sr10  1  0.872750  0.937235  0.830499  0  .  1
   Sr  Sr11  1  0.952262  0.571142  0.336551  0  .  1
   Sr  Sr12  1  0.543093  0.931423  0.168377  0  .  1
   Mn  Mn13  1  0.083333  0.250000  0.916667  0  .  1
   Mn  Mn14  1  0.254681  0.749991  0.745399  0  .  1
   Mn  Mn15  1  0.416021  0.250473  0.585184  0  .  1
   Mn  Mn16  1  0.750646  0.249527  0.248149  0  .  1
   Mn  Mn17  1  0.583333  0.750000  0.416667  0  .  1
   Mn  Mn18  1  0.911985  0.750009  0.087935  0  .  1
   O  O19  1  0.154195  0.996101  0.845834  0  .  1
   O  O20  1  0.252968  0.238200  0.747503  0  .  1
   O  O21  1  0.548950  0.329070  0.767105  0  .  1
   O  O22  1  0.109125  0.673653  0.583739  0  .  1
   O  O23  1  0.365360  0.827081  0.942284  0  .  1
   O  O24  1  0.499975  0.999523  0.497899  0  .  1
   O  O25  1  0.319894  0.503762  0.681001  0  .  1
   O  O26  1  0.285878  0.172828  0.401256  0  .  1
   O  O27  1  0.801307  0.672919  0.891049  0  .  1
   O  O28  1  0.012472  0.503899  0.987499  0  .  1
   O  O29  1  0.057541  0.826347  0.249595  0  .  1
   O  O30  1  0.583333  0.250000  0.416667  0  .  1
   O  O31  1  0.416924  0.749919  0.583159  0  .  1
   O  O32  1  0.214303  0.329679  0.102086  0  .  1
   O  O33  1  0.952364  0.170321  0.731248  0  .  1
   O  O34  1  0.666692  0.500477  0.335434  0  .  1
   O  O35  1  0.846772  0.996238  0.152332  0  .  1
   O  O36  1  0.880789  0.327172  0.432078  0  .  1
   O  O37  1  0.712980  0.829901  0.599635  0  .  1
   O  O38  1  0.617717  0.170931  0.066229  0  .  1
   O  O39  1  0.453686  0.670099  0.233698  0  .  1
   O  O40  1  0.913699  0.261800  0.085831  0  .  1
   O  O41  1  0.749742  0.750081  0.250174  0  .  1
 
