#\#CIF1.1
##########################################################################
#               Crystallographic Information Format file 
#               Produced by PyCifRW module
# 
#  This is a CIF file.  CIF has been adopted by the International
#  Union of Crystallography as the standard for data archiving and 
#  transmission.
#
#  For information on this file format, follow the CIF links at
#  http://www.iucr.org
##########################################################################

data_Sr13Mn8O30
_symmetry_space_group_name_H-M          'P 1'
_cell_length_a                          8.58218237675
_cell_length_b                          9.36506040653
_cell_length_c                          10.2880525743
_cell_angle_alpha                       89.164332359
_cell_angle_beta                        93.8622870511
_cell_angle_gamma                       96.1881083476
_chemical_name_systematic               'Generated by pymatgen'
_symmetry_Int_Tables_number             1
_chemical_formula_structural            Sr13Mn8O30
_chemical_formula_sum                   'Sr13 Mn8 O30'
_cell_volume                            820.170796616
_cell_formula_units_Z                   1
loop_
  _symmetry_equiv_pos_site_id
  _symmetry_equiv_pos_as_xyz
   1  'x, y, z'
 
loop_
  _atom_site_type_symbol
  _atom_site_label
  _atom_site_symmetry_multiplicity
  _atom_site_fract_x
  _atom_site_fract_y
  _atom_site_fract_z
  _atom_site_attached_hydrogens
  _atom_site_B_iso_or_equiv
  _atom_site_occupancy
   Sr  Sr1  1  0.099144  0.811596  0.510183  0  .  1
   Sr  Sr2  1  0.994744  0.716915  0.994555  0  .  1
   Sr  Sr3  1  0.118162  0.031977  0.801503  0  .  1
   Sr  Sr4  1  0.113776  0.450727  0.268244  0  .  1
   Sr  Sr5  1  0.197195  0.359459  0.626135  0  .  1
   Sr  Sr6  1  0.371045  0.094226  0.444796  0  .  1
   Sr  Sr7  1  0.488700  0.446279  0.994895  0  .  1
   Sr  Sr8  1  0.668963  0.883686  0.806540  0  .  1
   Sr  Sr9  1  0.782610  0.631461  0.326340  0  .  1
   Sr  Sr10  1  0.879214  0.549025  0.657674  0  .  1
   Sr  Sr11  1  0.806502  0.981961  0.155464  0  .  1
   Sr  Sr12  1  0.866022  0.269399  0.944264  0  .  1
   Sr  Sr13  1  0.858014  0.118274  0.491802  0  .  1
   Mn  Mn14  1  0.245384  0.679832  0.779358  0  .  1
   Mn  Mn15  1  0.222509  0.823427  0.219916  0  .  1
   Mn  Mn16  1  0.468030  0.747062  0.538295  0  .  1
   Mn  Mn17  1  0.395917  0.779792  0.020247  0  .  1
   Mn  Mn18  1  0.472879  0.101657  0.948926  0  .  1
   Mn  Mn19  1  0.516377  0.405255  0.454032  0  .  1
   Mn  Mn20  1  0.663880  0.280615  0.691395  0  .  1
   Mn  Mn21  1  0.708560  0.284517  0.229834  0  .  1
   O  O22  1  0.884723  0.244069  0.707555  0  .  1
   O  O23  1  0.912312  0.231436  0.215452  0  .  1
   O  O24  1  0.131490  0.511976  0.821528  0  .  1
   O  O25  1  0.295892  0.632813  0.615452  0  .  1
   O  O26  1  0.124753  0.087093  0.556117  0  .  1
   O  O27  1  0.245184  0.910561  0.048443  0  .  1
   O  O28  1  0.445379  0.665375  0.879153  0  .  1
   O  O29  1  0.358762  0.890879  0.759966  0  .  1
   O  O30  1  0.324538  0.221192  0.904264  0  .  1
   O  O31  1  0.333791  0.828050  0.380701  0  .  1
   O  O32  1  0.271347  0.641036  0.119994  0  .  1
   O  O33  1  0.312743  0.351172  0.397733  0  .  1
   O  O34  1  0.746365  0.614162  0.080359  0  .  1
   O  O35  1  0.717233  0.353126  0.524140  0  .  1
   O  O36  1  0.669982  0.880752  0.556043  0  .  1
   O  O37  1  0.394097  0.913603  0.624358  0  .  1
   O  O38  1  0.614616  0.132538  0.812289  0  .  1
   O  O39  1  0.581375  0.423717  0.278994  0  .  1
   O  O40  1  0.584799  0.595654  0.497964  0  .  1
   O  O41  1  0.692245  0.425686  0.809255  0  .  1
   O  O42  1  0.461888  0.294232  0.611220  0  .  1
   O  O43  1  0.561662  0.925834  0.014068  0  .  1
   O  O44  1  0.636558  0.126519  0.321324  0  .  1
   O  O45  1  0.621864  0.228023  0.065576  0  .  1
   O  O46  1  0.900988  0.967404  0.943253  0  .  1
   O  O47  1  0.816077  0.830587  0.515167  0  .  1
   O  O48  1  0.005012  0.542930  0.453782  0  .  1
   O  O49  1  0.845057  0.494227  0.121259  0  .  1
   O  O50  1  0.055990  0.765428  0.756772  0  .  1
   O  O51  1  0.009649  0.822783  0.251422  0  .  1
 
