#\#CIF1.1
##########################################################################
#               Crystallographic Information Format file 
#               Produced by PyCifRW module
# 
#  This is a CIF file.  CIF has been adopted by the International
#  Union of Crystallography as the standard for data archiving and 
#  transmission.
#
#  For information on this file format, follow the CIF links at
#  http://www.iucr.org
##########################################################################

data_Sr16V12O39
_symmetry_space_group_name_H-M          'P 1'
_cell_length_a                          14.4209068903
_cell_length_b                          7.8598475416
_cell_length_c                          8.78278517703
_cell_angle_alpha                       63.480399668
_cell_angle_beta                        79.466020119
_cell_angle_gamma                       82.1332469901
_chemical_name_systematic               'Generated by pymatgen'
_symmetry_Int_Tables_number             1
_chemical_formula_structural            Sr16V12O39
_chemical_formula_sum                   'Sr16 V12 O39'
_cell_volume                            874.009998655
_cell_formula_units_Z                   1
loop_
  _symmetry_equiv_pos_site_id
  _symmetry_equiv_pos_as_xyz
   1  'x, y, z'
 
loop_
  _atom_site_type_symbol
  _atom_site_label
  _atom_site_symmetry_multiplicity
  _atom_site_fract_x
  _atom_site_fract_y
  _atom_site_fract_z
  _atom_site_attached_hydrogens
  _atom_site_B_iso_or_equiv
  _atom_site_occupancy
   Sr  Sr1  1  0.598323  0.924680  0.847437  0  .  1
   Sr  Sr2  1  0.863583  0.888891  0.778087  0  .  1
   Sr  Sr3  1  0.862991  0.401428  0.778098  0  .  1
   Sr  Sr4  1  0.594577  0.428765  0.848547  0  .  1
   Sr  Sr5  1  0.134063  0.853070  0.709592  0  .  1
   Sr  Sr6  1  0.404380  0.820618  0.646168  0  .  1
   Sr  Sr7  1  0.404554  0.330252  0.647210  0  .  1
   Sr  Sr8  1  0.133764  0.370278  0.710047  0  .  1
   Sr  Sr9  1  0.595441  0.673306  0.352501  0  .  1
   Sr  Sr10  1  0.863261  0.633042  0.290030  0  .  1
   Sr  Sr11  1  0.863390  0.144647  0.290495  0  .  1
   Sr  Sr12  1  0.595387  0.175130  0.355368  0  .  1
   Sr  Sr13  1  0.133926  0.595898  0.223420  0  .  1
   Sr  Sr14  1  0.405496  0.567671  0.151234  0  .  1
   Sr  Sr15  1  0.133910  0.113671  0.223045  0  .  1
   Sr  Sr16  1  0.405377  0.078811  0.150384  0  .  1
   V  V17  1  0.292639  0.963526  0.926782  0  .  1
   V  V18  1  0.276870  0.465171  0.930846  0  .  1
   V  V19  1  0.718027  0.786557  0.566448  0  .  1
   V  V20  1  0.717931  0.283958  0.573915  0  .  1
   V  V21  1  0.279163  0.715605  0.428485  0  .  1
   V  V22  1  0.000668  0.250014  0.499690  0  .  1
   V  V23  1  0.000564  0.749687  0.500179  0  .  1
   V  V24  1  0.279385  0.214250  0.431381  0  .  1
   V  V25  1  0.720434  0.534242  0.070119  0  .  1
   V  V26  1  0.717594  0.035630  0.070772  0  .  1
   V  V27  1  0.987357  0.001659  0.003119  0  .  1
   V  V28  1  0.000063  0.499936  0.000070  0  .  1
   O  O29  1  0.423559  0.946844  0.894483  0  .  1
   O  O30  1  0.725865  0.662773  0.811159  0  .  1
   O  O31  1  0.133463  0.483376  0.966647  0  .  1
   O  O32  1  0.266945  0.198166  0.933182  0  .  1
   O  O33  1  0.267195  0.735179  0.933101  0  .  1
   O  O34  1  0.721499  0.165208  0.809130  0  .  1
   O  O35  1  0.418875  0.447661  0.895131  0  .  1
   O  O36  1  0.868419  0.770270  0.523027  0  .  1
   O  O37  1  0.998030  0.627182  0.747853  0  .  1
   O  O38  1  0.578337  0.801071  0.607626  0  .  1
   O  O39  1  0.724251  0.534487  0.568926  0  .  1
   O  O40  1  0.868808  0.261377  0.543446  0  .  1
   O  O41  1  0.724334  0.034573  0.568777  0  .  1
   O  O42  1  0.272228  0.091143  0.682734  0  .  1
   O  O43  1  0.014262  0.115255  0.762591  0  .  1
   O  O44  1  0.275757  0.591219  0.678587  0  .  1
   O  O45  1  0.578355  0.305434  0.601300  0  .  1
   O  O46  1  0.721770  0.904935  0.329895  0  .  1
   O  O47  1  0.276580  0.966929  0.429755  0  .  1
   O  O48  1  0.002142  0.499898  0.499480  0  .  1
   O  O49  1  0.003266  0.999231  0.499277  0  .  1
   O  O50  1  0.417982  0.698033  0.393946  0  .  1
   O  O51  1  0.136939  0.732994  0.466631  0  .  1
   O  O52  1  0.136610  0.232882  0.465249  0  .  1
   O  O53  1  0.276455  0.464470  0.431785  0  .  1
   O  O54  1  0.726163  0.405608  0.325994  0  .  1
   O  O55  1  0.418186  0.197773  0.396518  0  .  1
   O  O56  1  0.013768  0.881316  0.230713  0  .  1
   O  O57  1  0.723477  0.775310  0.069120  0  .  1
   O  O58  1  0.271917  0.841752  0.181981  0  .  1
   O  O59  1  0.578829  0.052887  0.106454  0  .  1
   O  O60  1  0.866109  0.516797  0.033507  0  .  1
   O  O61  1  0.859098  0.017937  0.034781  0  .  1
   O  O62  1  0.997964  0.373419  0.253281  0  .  1
   O  O63  1  0.580761  0.551365  0.105640  0  .  1
   O  O64  1  0.275813  0.339855  0.182453  0  .  1
   O  O65  1  0.723665  0.293716  0.069384  0  .  1
   O  O66  1  0.005438  0.753646  0.998833  0  .  1
   O  O67  1  0.005665  0.244898  0.998674  0  .  1
 
