#\#CIF1.1
##########################################################################
#               Crystallographic Information Format file 
#               Produced by PyCifRW module
# 
#  This is a CIF file.  CIF has been adopted by the International
#  Union of Crystallography as the standard for data archiving and 
#  transmission.
#
#  For information on this file format, follow the CIF links at
#  http://www.iucr.org
##########################################################################

data_Sr20V15O49
_symmetry_space_group_name_H-M          'P 1'
_cell_length_a                          8.77375678978
_cell_length_b                          15.4774783893
_cell_length_c                          8.77375678978
_cell_angle_alpha                       73.5346009265
_cell_angle_beta                        90.0
_cell_angle_gamma                       73.5346044588
_chemical_name_systematic               'Generated by pymatgen'
_symmetry_Int_Tables_number             1
_chemical_formula_structural            Sr20V15O49
_chemical_formula_sum                   'Sr20 V15 O49'
_cell_volume                            1091.53381523
_cell_formula_units_Z                   1
loop_
  _symmetry_equiv_pos_site_id
  _symmetry_equiv_pos_as_xyz
   1  'x, y, z'
 
loop_
  _atom_site_type_symbol
  _atom_site_label
  _atom_site_symmetry_multiplicity
  _atom_site_fract_x
  _atom_site_fract_y
  _atom_site_fract_z
  _atom_site_attached_hydrogens
  _atom_site_B_iso_or_equiv
  _atom_site_occupancy
   Sr  Sr1  1  0.033338  0.138167  0.241776  0  .  1
   Sr  Sr2  1  0.241776  0.138167  0.828495  0  .  1
   Sr  Sr3  1  0.620057  0.138167  0.033338  0  .  1
   Sr  Sr4  1  0.098248  0.405824  0.696820  0  .  1
   Sr  Sr5  1  0.432743  0.134515  0.432743  0  .  1
   Sr  Sr6  1  0.300095  0.399810  0.300095  0  .  1
   Sr  Sr7  1  0.305285  0.595473  0.510934  0  .  1
   Sr  Sr8  1  0.172083  0.863605  0.377867  0  .  1
   Sr  Sr9  1  0.510934  0.595473  0.099242  0  .  1
   Sr  Sr10  1  0.099242  0.595473  0.893593  0  .  1
   Sr  Sr11  1  0.696820  0.405824  0.495929  0  .  1
   Sr  Sr12  1  0.828495  0.138167  0.620057  0  .  1
   Sr  Sr13  1  0.897356  0.405824  0.098248  0  .  1
   Sr  Sr14  1  0.495929  0.405824  0.897356  0  .  1
   Sr  Sr15  1  0.893593  0.595473  0.305285  0  .  1
   Sr  Sr16  1  0.758528  0.863605  0.172083  0  .  1
   Sr  Sr17  1  0.377867  0.863605  0.964313  0  .  1
   Sr  Sr18  1  0.567738  0.864525  0.567738  0  .  1
   Sr  Sr19  1  0.702269  0.595462  0.702269  0  .  1
   Sr  Sr20  1  0.964313  0.863605  0.758528  0  .  1
   V  V21  1  0.992054  0.015892  0.992054  0  .  1
   V  V22  1  0.257086  0.280790  0.059322  0  .  1
   V  V23  1  0.401054  0.000095  0.200709  0  .  1
   V  V24  1  0.059322  0.280790  0.462125  0  .  1
   V  V25  1  0.200709  0.000095  0.598851  0  .  1
   V  V26  1  0.149427  0.701147  0.149427  0  .  1
   V  V27  1  0.659888  0.280790  0.257086  0  .  1
   V  V28  1  0.598851  0.000095  0.799196  0  .  1
   V  V29  1  0.799196  0.000095  0.401054  0  .  1
   V  V30  1  0.462125  0.280790  0.659888  0  .  1
   V  V31  1  0.339846  0.721869  0.742258  0  .  1
   V  V32  1  0.535872  0.721869  0.339846  0  .  1
   V  V33  1  0.858740  0.282518  0.858740  0  .  1
   V  V34  1  0.938285  0.721869  0.535872  0  .  1
   V  V35  1  0.742258  0.721869  0.938285  0  .  1
   O  O36  1  0.191424  0.989874  0.099511  0  .  1
   O  O37  1  0.000648  0.998705  0.500648  0  .  1
   O  O38  1  0.500648  0.998705  0.000648  0  .  1
   O  O39  1  0.322786  0.132003  0.129916  0  .  1
   O  O40  1  0.160237  0.273754  0.271506  0  .  1
   O  O41  1  0.129916  0.132003  0.545212  0  .  1
   O  O42  1  0.297284  0.001455  0.400389  0  .  1
   O  O43  1  0.099511  0.989874  0.818702  0  .  1
   O  O44  1  0.271506  0.273754  0.566009  0  .  1
   O  O45  1  0.039576  0.731337  0.326377  0  .  1
   O  O46  1  0.016110  0.581841  0.605419  0  .  1
   O  O47  1  0.064299  0.277252  0.965560  0  .  1
   O  O48  1  0.400389  0.001455  0.701261  0  .  1
   O  O49  1  0.598156  0.001455  0.297284  0  .  1
   O  O50  1  0.454740  0.273754  0.160237  0  .  1
   O  O51  1  0.211730  0.576538  0.211730  0  .  1
   O  O52  1  0.326377  0.731337  0.229088  0  .  1
   O  O53  1  0.757188  0.277252  0.064299  0  .  1
   O  O54  1  0.566009  0.273754  0.454740  0  .  1
   O  O55  1  0.545212  0.132003  0.738082  0  .  1
   O  O56  1  0.701261  0.001455  0.598156  0  .  1
   O  O57  1  0.137079  0.725842  0.637079  0  .  1
   O  O58  1  0.390696  0.420133  0.587169  0  .  1
   O  O59  1  0.189171  0.420133  0.992699  0  .  1
   O  O60  1  0.362391  0.275216  0.862391  0  .  1
   O  O61  1  0.910616  0.989874  0.191424  0  .  1
   O  O62  1  0.587169  0.420133  0.189171  0  .  1
   O  O63  1  0.738082  0.132003  0.322786  0  .  1
   O  O64  1  0.812740  0.581841  0.016110  0  .  1
   O  O65  1  0.637079  0.725842  0.137079  0  .  1
   O  O66  1  0.605419  0.581841  0.402048  0  .  1
   O  O67  1  0.658449  0.277252  0.757188  0  .  1
   O  O68  1  0.469142  0.865469  0.268894  0  .  1
   O  O69  1  0.402048  0.581841  0.812740  0  .  1
   O  O70  1  0.862391  0.275216  0.362391  0  .  1
   O  O71  1  0.818702  0.989874  0.910616  0  .  1
   O  O72  1  0.440529  0.722777  0.533561  0  .  1
   O  O73  1  0.268894  0.865469  0.665390  0  .  1
   O  O74  1  0.229088  0.731337  0.942287  0  .  1
   O  O75  1  0.992699  0.420133  0.390696  0  .  1
   O  O76  1  0.942287  0.731337  0.039576  0  .  1
   O  O77  1  0.533561  0.722777  0.836694  0  .  1
   O  O78  1  0.743661  0.722777  0.440529  0  .  1
   O  O79  1  0.931298  0.137405  0.931298  0  .  1
   O  O80  1  0.965560  0.277252  0.658449  0  .  1
   O  O81  1  0.787311  0.425378  0.787311  0  .  1
   O  O82  1  0.865638  0.865469  0.469142  0  .  1
   O  O83  1  0.665390  0.865469  0.865638  0  .  1
   O  O84  1  0.836694  0.722777  0.743661  0  .  1
 
