#\#CIF1.1
##########################################################################
#               Crystallographic Information Format file 
#               Produced by PyCifRW module
# 
#  This is a CIF file.  CIF has been adopted by the International
#  Union of Crystallography as the standard for data archiving and 
#  transmission.
#
#  For information on this file format, follow the CIF links at
#  http://www.iucr.org
##########################################################################

data_Sr21Fe14O47
_symmetry_space_group_name_H-M          'P 1'
_cell_length_a                          8.76569201733
_cell_length_b                          12.3979765705
_cell_length_c                          11.9425406546
_cell_angle_alpha                       65.4658978189
_cell_angle_beta                        68.4644534664
_cell_angle_gamma                       81.8629931431
_chemical_name_systematic               'Generated by pymatgen'
_symmetry_Int_Tables_number             1
_chemical_formula_structural            Sr21Fe14O47
_chemical_formula_sum                   'Sr21 Fe14 O47'
_cell_volume                            1098.18248562
_cell_formula_units_Z                   1
loop_
  _symmetry_equiv_pos_site_id
  _symmetry_equiv_pos_as_xyz
   1  'x, y, z'
 
loop_
  _atom_site_type_symbol
  _atom_site_label
  _atom_site_symmetry_multiplicity
  _atom_site_fract_x
  _atom_site_fract_y
  _atom_site_fract_z
  _atom_site_attached_hydrogens
  _atom_site_B_iso_or_equiv
  _atom_site_occupancy
   Sr  Sr1  1  0.142857  0.785714  0.000000  0  .  1
   Sr  Sr2  1  0.990703  0.496761  0.999972  0  .  1
   Sr  Sr3  1  0.131486  0.941393  0.365786  0  .  1
   Sr  Sr4  1  0.154229  0.630036  0.634214  0  .  1
   Sr  Sr5  1  0.011329  0.344768  0.637453  0  .  1
   Sr  Sr6  1  0.300832  0.916588  0.632937  0  .  1
   Sr  Sr7  1  0.274385  0.226660  0.362547  0  .  1
   Sr  Sr8  1  0.433256  0.350502  0.999664  0  .  1
   Sr  Sr9  1  0.558055  0.799098  0.362054  0  .  1
   Sr  Sr10  1  0.704455  0.926819  0.999587  0  .  1
   Sr  Sr11  1  0.295012  0.074668  0.000028  0  .  1
   Sr  Sr12  1  0.581259  0.644610  0.000413  0  .  1
   Sr  Sr13  1  0.415955  0.512320  0.365742  0  .  1
   Sr  Sr14  1  0.587533  0.486789  0.633778  0  .  1
   Sr  Sr15  1  0.443468  0.202565  0.634614  0  .  1
   Sr  Sr16  1  0.727659  0.772331  0.637946  0  .  1
   Sr  Sr17  1  0.842246  0.368864  0.365386  0  .  1
   Sr  Sr18  1  0.984882  0.654840  0.367063  0  .  1
   Sr  Sr19  1  0.698181  0.084639  0.366222  0  .  1
   Sr  Sr20  1  0.852458  0.220926  0.000336  0  .  1
   Sr  Sr21  1  0.869759  0.059109  0.634258  0  .  1
   Fe  Fe22  1  0.343957  0.787862  0.192292  0  .  1
   Fe  Fe23  1  0.195607  0.496533  0.209952  0  .  1
   Fe  Fe24  1  0.060274  0.216983  0.191830  0  .  1
   Fe  Fe25  1  0.090107  0.074895  0.790048  0  .  1
   Fe  Fe26  1  0.509074  0.925613  0.807787  0  .  1
   Fe  Fe27  1  0.375174  0.645963  0.789935  0  .  1
   Fe  Fe28  1  0.225440  0.354446  0.808170  0  .  1
   Fe  Fe29  1  0.629720  0.359818  0.194253  0  .  1
   Fe  Fe30  1  0.490208  0.073137  0.193677  0  .  1
   Fe  Fe31  1  0.776640  0.645816  0.192213  0  .  1
   Fe  Fe32  1  0.910540  0.925465  0.210065  0  .  1
   Fe  Fe33  1  0.655994  0.211611  0.805747  0  .  1
   Fe  Fe34  1  0.795506  0.498291  0.806323  0  .  1
   Fe  Fe35  1  0.941758  0.783566  0.807708  0  .  1
   O  O36  1  0.130223  0.866941  0.179013  0  .  1
   O  O37  1  0.008577  0.926183  0.820989  0  .  1
   O  O38  1  0.031046  0.853942  0.615174  0  .  1
   O  O39  1  0.417785  0.932534  0.191162  0  .  1
   O  O40  1  0.254669  0.717487  0.384826  0  .  1
   O  O41  1  0.114726  0.431369  0.398081  0  .  1
   O  O42  1  0.283595  0.994649  0.820959  0  .  1
   O  O43  1  0.012007  0.425020  0.808784  0  .  1
   O  O44  1  0.431948  0.857694  0.999782  0  .  1
   O  O45  1  0.139656  0.369971  0.180588  0  .  1
   O  O46  1  0.142857  0.285714  0.000000  0  .  1
   O  O47  1  0.277138  0.645245  0.179011  0  .  1
   O  O48  1  0.155491  0.704487  0.820987  0  .  1
   O  O49  1  0.170989  0.140060  0.601919  0  .  1
   O  O50  1  0.273707  0.146408  0.191216  0  .  1
   O  O51  1  0.585514  0.993856  0.615467  0  .  1
   O  O52  1  0.430745  0.773225  0.820210  0  .  1
   O  O53  1  0.453943  0.712992  0.601732  0  .  1
   O  O54  1  0.146058  0.201457  0.819412  0  .  1
   O  O55  1  0.560337  0.716672  0.191901  0  .  1
   O  O56  1  0.294242  0.498535  0.820059  0  .  1
   O  O57  1  0.415321  0.438681  0.179900  0  .  1
   O  O58  1  0.309170  0.423873  0.615412  0  .  1
   O  O59  1  0.854969  0.798204  0.179790  0  .  1
   O  O60  1  0.700201  0.577573  0.384533  0  .  1
   O  O61  1  0.561485  0.217483  0.191178  0  .  1
   O  O62  1  0.543928  0.292471  0.387679  0  .  1
   O  O63  1  0.411567  0.002930  0.386370  0  .  1
   O  O64  1  0.568339  0.143689  0.000166  0  .  1
   O  O65  1  0.438077  0.283373  0.808582  0  .  1
   O  O66  1  0.703679  0.502103  0.191336  0  .  1
   O  O67  1  0.717375  0.427740  0.999834  0  .  1
   O  O68  1  0.853767  0.713734  0.000218  0  .  1
   O  O69  1  0.568691  0.566587  0.820474  0  .  1
   O  O70  1  0.725377  0.854757  0.808099  0  .  1
   O  O71  1  0.831771  0.858436  0.398268  0  .  1
   O  O72  1  0.724229  0.353945  0.808822  0  .  1
   O  O73  1  0.874147  0.568499  0.613630  0  .  1
   O  O74  1  0.741787  0.278958  0.612321  0  .  1
   O  O75  1  0.002119  0.576779  0.179041  0  .  1
   O  O76  1  0.717023  0.004842  0.179526  0  .  1
   O  O77  1  0.867929  0.638894  0.808838  0  .  1
   O  O78  1  0.582035  0.069325  0.808664  0  .  1
   O  O79  1  0.847637  0.288056  0.191418  0  .  1
   O  O80  1  0.976544  0.147555  0.384588  0  .  1
   O  O81  1  0.991472  0.072894  0.179941  0  .  1
   O  O82  1  0.870393  0.132747  0.820099  0  .  1
 
