#\#CIF1.1
##########################################################################
#               Crystallographic Information Format file 
#               Produced by PyCifRW module
# 
#  This is a CIF file.  CIF has been adopted by the International
#  Union of Crystallography as the standard for data archiving and 
#  transmission.
#
#  For information on this file format, follow the CIF links at
#  http://www.iucr.org
##########################################################################

data_Sr24Fe16O55
_symmetry_space_group_name_H-M          'P 1'
_cell_length_a                          11.0687330377
_cell_length_b                          11.9292629361
_cell_length_c                          11.9292629361
_cell_angle_alpha                       117.508329408
_cell_angle_beta                        76.5873924843
_cell_angle_gamma                       76.5873924843
_chemical_name_systematic               'Generated by pymatgen'
_symmetry_Int_Tables_number             1
_chemical_formula_structural            Sr24Fe16O55
_chemical_formula_sum                   'Sr24 Fe16 O55'
_cell_volume                            1249.60320442
_cell_formula_units_Z                   1
loop_
  _symmetry_equiv_pos_site_id
  _symmetry_equiv_pos_as_xyz
   1  'x, y, z'
 
loop_
  _atom_site_type_symbol
  _atom_site_label
  _atom_site_symmetry_multiplicity
  _atom_site_fract_x
  _atom_site_fract_y
  _atom_site_fract_z
  _atom_site_attached_hydrogens
  _atom_site_B_iso_or_equiv
  _atom_site_occupancy
   Sr  Sr1  1  0.870475  0.259087  0.259087  0  .  1
   Sr  Sr2  1  0.874471  0.434941  0.068401  0  .  1
   Sr  Sr3  1  0.740768  0.000124  0.000124  0  .  1
   Sr  Sr4  1  0.874471  0.068401  0.434941  0  .  1
   Sr  Sr5  1  0.748765  0.183289  0.817089  0  .  1
   Sr  Sr6  1  0.748765  0.817089  0.183289  0  .  1
   Sr  Sr7  1  0.259232  0.999876  0.999876  0  .  1
   Sr  Sr8  1  0.374620  0.067295  0.432977  0  .  1
   Sr  Sr9  1  0.374620  0.432977  0.067295  0  .  1
   Sr  Sr10  1  0.374235  0.251477  0.251477  0  .  1
   Sr  Sr11  1  0.500000  0.317455  0.682545  0  .  1
   Sr  Sr12  1  0.500000  0.682545  0.317455  0  .  1
   Sr  Sr13  1  0.625380  0.567023  0.932705  0  .  1
   Sr  Sr14  1  0.500000  0.500000  0.500000  0  .  1
   Sr  Sr15  1  0.625380  0.932705  0.567023  0  .  1
   Sr  Sr16  1  0.625765  0.748523  0.748523  0  .  1
   Sr  Sr17  1  0.251235  0.182911  0.816711  0  .  1
   Sr  Sr18  1  0.251235  0.816711  0.182911  0  .  1
   Sr  Sr19  1  0.000000  0.318941  0.681059  0  .  1
   Sr  Sr20  1  0.125529  0.565059  0.931599  0  .  1
   Sr  Sr21  1  0.129525  0.740913  0.740913  0  .  1
   Sr  Sr22  1  0.000000  0.681059  0.318941  0  .  1
   Sr  Sr23  1  0.000000  0.500000  0.500000  0  .  1
   Sr  Sr24  1  0.125529  0.931599  0.565059  0  .  1
   Fe  Fe25  1  0.749412  0.403233  0.597808  0  .  1
   Fe  Fe26  1  0.749412  0.597808  0.403233  0  .  1
   Fe  Fe27  1  0.875170  0.654386  0.847392  0  .  1
   Fe  Fe28  1  0.625890  0.152785  0.346069  0  .  1
   Fe  Fe29  1  0.875170  0.847392  0.654386  0  .  1
   Fe  Fe30  1  0.625890  0.346069  0.152785  0  .  1
   Fe  Fe31  1  0.500000  0.097664  0.902336  0  .  1
   Fe  Fe32  1  0.500000  0.902336  0.097664  0  .  1
   Fe  Fe33  1  0.124830  0.152608  0.345614  0  .  1
   Fe  Fe34  1  0.250588  0.402192  0.596767  0  .  1
   Fe  Fe35  1  0.124830  0.345614  0.152608  0  .  1
   Fe  Fe36  1  0.374110  0.847215  0.653931  0  .  1
   Fe  Fe37  1  0.374110  0.653931  0.847215  0  .  1
   Fe  Fe38  1  0.250588  0.596767  0.402192  0  .  1
   Fe  Fe39  1  0.000000  0.105371  0.894629  0  .  1
   Fe  Fe40  1  0.000000  0.894629  0.105371  0  .  1
   O  O41  1  0.819089  0.210691  0.030595  0  .  1
   O  O42  1  0.819089  0.030595  0.210691  0  .  1
   O  O43  1  0.936961  0.469996  0.279236  0  .  1
   O  O44  1  0.936961  0.279236  0.469996  0  .  1
   O  O45  1  0.876209  0.561820  0.946825  0  .  1
   O  O46  1  0.562559  0.029184  0.220566  0  .  1
   O  O47  1  0.749074  0.306233  0.693505  0  .  1
   O  O48  1  0.562559  0.220566  0.029184  0  .  1
   O  O49  1  0.749767  0.500072  0.500072  0  .  1
   O  O50  1  0.500000  0.000000  0.000000  0  .  1
   O  O51  1  0.630012  0.439505  0.053701  0  .  1
   O  O52  1  0.939647  0.789752  0.969460  0  .  1
   O  O53  1  0.687995  0.470265  0.279179  0  .  1
   O  O54  1  0.811821  0.720609  0.529058  0  .  1
   O  O55  1  0.874252  0.748891  0.748891  0  .  1
   O  O56  1  0.749074  0.693505  0.306233  0  .  1
   O  O57  1  0.939647  0.969460  0.789752  0  .  1
   O  O58  1  0.811821  0.529058  0.720609  0  .  1
   O  O59  1  0.630012  0.053701  0.439505  0  .  1
   O  O60  1  0.687995  0.279179  0.470265  0  .  1
   O  O61  1  0.876209  0.946825  0.561820  0  .  1
   O  O62  1  0.623164  0.251162  0.251162  0  .  1
   O  O63  1  0.312660  0.028973  0.220136  0  .  1
   O  O64  1  0.437059  0.279536  0.471423  0  .  1
   O  O65  1  0.562941  0.720464  0.528577  0  .  1
   O  O66  1  0.312660  0.220136  0.028973  0  .  1
   O  O67  1  0.500000  0.805835  0.194165  0  .  1
   O  O68  1  0.437059  0.471423  0.279536  0  .  1
   O  O69  1  0.500000  0.194165  0.805835  0  .  1
   O  O70  1  0.687340  0.971027  0.779864  0  .  1
   O  O71  1  0.562941  0.528577  0.720464  0  .  1
   O  O72  1  0.687340  0.779864  0.971027  0  .  1
   O  O73  1  0.060353  0.210248  0.030540  0  .  1
   O  O74  1  0.188179  0.279391  0.470942  0  .  1
   O  O75  1  0.123791  0.438180  0.053175  0  .  1
   O  O76  1  0.060353  0.030540  0.210248  0  .  1
   O  O77  1  0.123791  0.053175  0.438180  0  .  1
   O  O78  1  0.125748  0.251109  0.251109  0  .  1
   O  O79  1  0.188179  0.470942  0.279391  0  .  1
   O  O80  1  0.376836  0.748838  0.748838  0  .  1
   O  O81  1  0.369988  0.560495  0.946299  0  .  1
   O  O82  1  0.437441  0.970816  0.779434  0  .  1
   O  O83  1  0.250926  0.693767  0.306495  0  .  1
   O  O84  1  0.250233  0.499928  0.499928  0  .  1
   O  O85  1  0.312005  0.720821  0.529735  0  .  1
   O  O86  1  0.250926  0.306495  0.693767  0  .  1
   O  O87  1  0.437441  0.779434  0.970816  0  .  1
   O  O88  1  0.369988  0.946299  0.560495  0  .  1
   O  O89  1  0.312005  0.529735  0.720821  0  .  1
   O  O90  1  0.000000  0.198588  0.801412  0  .  1
   O  O91  1  0.000000  0.801412  0.198588  0  .  1
   O  O92  1  0.063039  0.720764  0.530004  0  .  1
   O  O93  1  0.180911  0.969405  0.789309  0  .  1
   O  O94  1  0.063039  0.530004  0.720764  0  .  1
   O  O95  1  0.180911  0.789309  0.969405  0  .  1
 
