#\#CIF1.1
##########################################################################
#               Crystallographic Information Format file 
#               Produced by PyCifRW module
# 
#  This is a CIF file.  CIF has been adopted by the International
#  Union of Crystallography as the standard for data archiving and 
#  transmission.
#
#  For information on this file format, follow the CIF links at
#  http://www.iucr.org
##########################################################################

data_Sr2Cu2O5
_symmetry_space_group_name_H-M          'P 1'
_cell_length_a                          3.751516
_cell_length_b                          5.54652976
_cell_length_c                          11.03750519
_cell_angle_alpha                       90.0
_cell_angle_beta                        90.0
_cell_angle_gamma                       90.0
_chemical_name_systematic               'Generated by pymatgen'
_symmetry_Int_Tables_number             1
_chemical_formula_structural            Sr2Cu2O5
_chemical_formula_sum                   'Sr4 Cu4 O10'
_cell_volume                            229.667250591
_cell_formula_units_Z                   2
loop_
  _symmetry_equiv_pos_site_id
  _symmetry_equiv_pos_as_xyz
   1  'x, y, z'
 
loop_
  _atom_site_type_symbol
  _atom_site_label
  _atom_site_symmetry_multiplicity
  _atom_site_fract_x
  _atom_site_fract_y
  _atom_site_fract_z
  _atom_site_attached_hydrogens
  _atom_site_B_iso_or_equiv
  _atom_site_occupancy
   O  O1  1  0.000000  0.500000  0.500000  0  .  1
   O  O2  1  0.000000  0.000000  0.000000  0  .  1
   O  O3  1  0.000000  0.982486  0.730768  0  .  1
   O  O4  1  0.000000  0.017514  0.269232  0  .  1
   O  O5  1  0.000000  0.482486  0.769232  0  .  1
   O  O6  1  0.000000  0.517514  0.230768  0  .  1
   O  O7  1  0.500000  0.207112  0.596238  0  .  1
   O  O8  1  0.500000  0.792888  0.403762  0  .  1
   O  O9  1  0.500000  0.292888  0.096238  0  .  1
   O  O10  1  0.500000  0.707112  0.903762  0  .  1
   Cu  Cu11  1  0.000000  0.242208  0.622557  0  .  1
   Cu  Cu12  1  0.000000  0.757792  0.377443  0  .  1
   Cu  Cu13  1  0.000000  0.742208  0.877443  0  .  1
   Cu  Cu14  1  0.000000  0.257792  0.122557  0  .  1
   Sr  Sr15  1  0.500000  0.213043  0.865036  0  .  1
   Sr  Sr16  1  0.500000  0.786957  0.134964  0  .  1
   Sr  Sr17  1  0.500000  0.713043  0.634964  0  .  1
   Sr  Sr18  1  0.500000  0.286957  0.365036  0  .  1
 
