#\#CIF1.1
##########################################################################
#               Crystallographic Information Format file 
#               Produced by PyCifRW module
# 
#  This is a CIF file.  CIF has been adopted by the International
#  Union of Crystallography as the standard for data archiving and 
#  transmission.
#
#  For information on this file format, follow the CIF links at
#  http://www.iucr.org
##########################################################################

data_Sr2Co2O5
_symmetry_space_group_name_H-M          'P 1'
_cell_length_a                          7.82027581525
_cell_length_b                          5.65595516993
_cell_length_c                          5.60015823372
_cell_angle_alpha                       60.8968149558
_cell_angle_beta                        46.0148078411
_cell_angle_gamma                       46.8993257464
_chemical_name_systematic               'Generated by pymatgen'
_symmetry_Int_Tables_number             1
_chemical_formula_structural            Sr2Co2O5
_chemical_formula_sum                   'Sr2 Co2 O5'
_cell_volume                            130.099203071
_cell_formula_units_Z                   1
loop_
  _symmetry_equiv_pos_site_id
  _symmetry_equiv_pos_as_xyz
   1  'x, y, z'
 
loop_
  _atom_site_type_symbol
  _atom_site_label
  _atom_site_symmetry_multiplicity
  _atom_site_fract_x
  _atom_site_fract_y
  _atom_site_fract_z
  _atom_site_attached_hydrogens
  _atom_site_B_iso_or_equiv
  _atom_site_occupancy
   Sr  Sr1  1  0.108626  0.609638  0.547124  0  .  1
   Sr  Sr2  1  0.608516  0.609101  0.553602  0  .  1
   Co  Co3  1  0.909135  0.071109  0.993718  0  .  1
   Co  Co4  1  0.314633  0.160619  0.059565  0  .  1
   O  O5  1  0.580868  0.245544  0.069838  0  .  1
   O  O6  1  0.109608  0.615737  0.053778  0  .  1
   O  O7  1  0.622305  0.955667  0.683235  0  .  1
   O  O8  1  0.189017  0.010474  0.500037  0  .  1
   O  O9  1  0.005632  0.231098  0.073465  0  .  1
 
