#\#CIF1.1
##########################################################################
#               Crystallographic Information Format file 
#               Produced by PyCifRW module
# 
#  This is a CIF file.  CIF has been adopted by the International
#  Union of Crystallography as the standard for data archiving and 
#  transmission.
#
#  For information on this file format, follow the CIF links at
#  http://www.iucr.org
##########################################################################

data_Sr2Cu2O3
_symmetry_space_group_name_H-M          'P 1'
_cell_length_a                          4.16004724559
_cell_length_b                          7.60588335768
_cell_length_c                          11.5758943844
_cell_angle_alpha                       90.0807487974
_cell_angle_beta                        89.9900221712
_cell_angle_gamma                       105.863102874
_chemical_name_systematic               'Generated by pymatgen'
_symmetry_Int_Tables_number             1
_chemical_formula_structural            Sr2Cu2O3
_chemical_formula_sum                   'Sr4 Cu4 O6'
_cell_volume                            352.322094162
_cell_formula_units_Z                   2
loop_
  _symmetry_equiv_pos_site_id
  _symmetry_equiv_pos_as_xyz
   1  'x, y, z'
 
loop_
  _atom_site_type_symbol
  _atom_site_label
  _atom_site_symmetry_multiplicity
  _atom_site_fract_x
  _atom_site_fract_y
  _atom_site_fract_z
  _atom_site_attached_hydrogens
  _atom_site_B_iso_or_equiv
  _atom_site_occupancy
   Sr  Sr1  1  0.891599  0.784986  0.497930  0  .  1
   Sr  Sr2  1  0.393947  0.783031  0.000357  0  .  1
   Sr  Sr3  1  0.607485  0.217615  0.999252  0  .  1
   Sr  Sr4  1  0.111240  0.219519  0.501140  0  .  1
   Cu  Cu5  1  0.002202  0.002197  0.169210  0  .  1
   Cu  Cu6  1  0.001320  0.998618  0.830142  0  .  1
   Cu  Cu7  1  0.503417  0.004546  0.330111  0  .  1
   Cu  Cu8  1  0.501310  0.999554  0.669230  0  .  1
   O  O9  1  0.502159  0.002117  0.161077  0  .  1
   O  O10  1  0.502097  0.999166  0.838121  0  .  1
   O  O11  1  0.003859  0.005263  0.338019  0  .  1
   O  O12  1  0.001543  0.998959  0.661206  0  .  1
   O  O13  1  0.502598  0.003174  0.499504  0  .  1
   O  O14  1  0.001054  0.999279  0.999753  0  .  1
 
