#\#CIF1.1
##########################################################################
#               Crystallographic Information Format file 
#               Produced by PyCifRW module
# 
#  This is a CIF file.  CIF has been adopted by the International
#  Union of Crystallography as the standard for data archiving and 
#  transmission.
#
#  For information on this file format, follow the CIF links at
#  http://www.iucr.org
##########################################################################

data_Sr2CoO3
_symmetry_space_group_name_H-M          'P 1'
_cell_length_a                          3.53272481125
_cell_length_b                          3.53272481125
_cell_length_c                          10.9051018219
_cell_angle_alpha                       86.1020554941
_cell_angle_beta                        93.8979445059
_cell_angle_gamma                       89.2152683169
_chemical_name_systematic               'Generated by pymatgen'
_symmetry_Int_Tables_number             1
_chemical_formula_structural            Sr2CoO3
_chemical_formula_sum                   'Sr2 Co1 O3'
_cell_volume                            135.445374322
_cell_formula_units_Z                   1
loop_
  _symmetry_equiv_pos_site_id
  _symmetry_equiv_pos_as_xyz
   1  'x, y, z'
 
loop_
  _atom_site_type_symbol
  _atom_site_label
  _atom_site_symmetry_multiplicity
  _atom_site_fract_x
  _atom_site_fract_y
  _atom_site_fract_z
  _atom_site_attached_hydrogens
  _atom_site_B_iso_or_equiv
  _atom_site_occupancy
   Sr  Sr1  1  0.544198  0.455802  0.708269  0  .  1
   Sr  Sr2  1  0.455802  0.544198  0.291731  0  .  1
   Co  Co3  1  0.000000  0.000000  0.500000  0  .  1
   O  O4  1  0.500000  0.500000  0.500000  0  .  1
   O  O5  1  0.040296  0.959704  0.689922  0  .  1
   O  O6  1  0.959704  0.040296  0.310078  0  .  1
 
