#\#CIF1.1
##########################################################################
#               Crystallographic Information Format file 
#               Produced by PyCifRW module
# 
#  This is a CIF file.  CIF has been adopted by the International
#  Union of Crystallography as the standard for data archiving and 
#  transmission.
#
#  For information on this file format, follow the CIF links at
#  http://www.iucr.org
##########################################################################

data_Sr2FeO4
_symmetry_space_group_name_H-M          'P 1'
_cell_length_a                          3.90949021317
_cell_length_b                          3.90949021014
_cell_length_c                          6.85942710048
_cell_angle_alpha                       106.557178749
_cell_angle_beta                        106.5571788
_cell_angle_gamma                       89.999999951
_chemical_name_systematic               'Generated by pymatgen'
_symmetry_Int_Tables_number             1
_chemical_formula_structural            Sr2FeO4
_chemical_formula_sum                   'Sr2 Fe1 O4'
_cell_volume                            95.9492827673
_cell_formula_units_Z                   1
loop_
  _symmetry_equiv_pos_site_id
  _symmetry_equiv_pos_as_xyz
   1  'x, y, z'
 
loop_
  _atom_site_type_symbol
  _atom_site_label
  _atom_site_symmetry_multiplicity
  _atom_site_fract_x
  _atom_site_fract_y
  _atom_site_fract_z
  _atom_site_attached_hydrogens
  _atom_site_B_iso_or_equiv
  _atom_site_occupancy
   O  O1  1  0.842024  0.842023  0.684048  0  .  1
   O  O2  1  0.157976  0.157974  0.315950  0  .  1
   O  O3  1  1.000000  0.500000  0.000000  0  .  1
   O  O4  1  0.500000  0.000000  0.000001  0  .  1
   Fe  Fe5  1  0.000000  0.000000  0.000000  0  .  1
   Sr  Sr6  1  0.642828  0.642827  0.285655  0  .  1
   Sr  Sr7  1  0.357172  0.357173  0.714344  0  .  1
 
