#\#CIF1.1
##########################################################################
#               Crystallographic Information Format file 
#               Produced by PyCifRW module
# 
#  This is a CIF file.  CIF has been adopted by the International
#  Union of Crystallography as the standard for data archiving and 
#  transmission.
#
#  For information on this file format, follow the CIF links at
#  http://www.iucr.org
##########################################################################

data_Sr2Mn2O5
_symmetry_space_group_name_H-M          'P 1'
_cell_length_a                          3.84968994
_cell_length_b                          5.63337551
_cell_length_c                          11.05635562
_cell_angle_alpha                       90.0
_cell_angle_beta                        90.0
_cell_angle_gamma                       90.0
_chemical_name_systematic               'Generated by pymatgen'
_symmetry_Int_Tables_number             1
_chemical_formula_structural            Sr2Mn2O5
_chemical_formula_sum                   'Sr4 Mn4 O10'
_cell_volume                            239.776409507
_cell_formula_units_Z                   2
loop_
  _symmetry_equiv_pos_site_id
  _symmetry_equiv_pos_as_xyz
   1  'x, y, z'
 
loop_
  _atom_site_type_symbol
  _atom_site_label
  _atom_site_symmetry_multiplicity
  _atom_site_fract_x
  _atom_site_fract_y
  _atom_site_fract_z
  _atom_site_attached_hydrogens
  _atom_site_B_iso_or_equiv
  _atom_site_occupancy
   O  O1  1  0.499999  0.500000  0.500000  0  .  1
   O  O2  1  0.499999  0.000000  0.000000  0  .  1
   O  O3  1  0.499999  0.972985  0.730507  0  .  1
   O  O4  1  0.499999  0.027016  0.269493  0  .  1
   O  O5  1  0.499999  0.472983  0.769493  0  .  1
   O  O6  1  0.499999  0.527016  0.230507  0  .  1
   O  O7  1  0.000000  0.201623  0.597928  0  .  1
   O  O8  1  0.000000  0.798376  0.402072  0  .  1
   O  O9  1  0.000000  0.298376  0.097928  0  .  1
   O  O10  1  0.000000  0.701623  0.902072  0  .  1
   Mn  Mn11  1  0.499999  0.242773  0.623836  0  .  1
   Mn  Mn12  1  0.499999  0.757228  0.376164  0  .  1
   Mn  Mn13  1  0.499999  0.742773  0.876163  0  .  1
   Mn  Mn14  1  0.499999  0.257227  0.123837  0  .  1
   Sr  Sr15  1  0.000000  0.217585  0.866844  0  .  1
   Sr  Sr16  1  0.000000  0.782414  0.133156  0  .  1
   Sr  Sr17  1  0.000000  0.717586  0.633156  0  .  1
   Sr  Sr18  1  0.000000  0.282415  0.366845  0  .  1
 
