#\#CIF1.1
##########################################################################
#               Crystallographic Information Format file 
#               Produced by PyCifRW module
# 
#  This is a CIF file.  CIF has been adopted by the International
#  Union of Crystallography as the standard for data archiving and 
#  transmission.
#
#  For information on this file format, follow the CIF links at
#  http://www.iucr.org
##########################################################################

data_Sr3Cr2O7
_symmetry_space_group_name_H-M          'P 1'
_cell_length_a                          8.09985549733
_cell_length_b                          8.09985567807
_cell_length_c                          15.5180873686
_cell_angle_alpha                       37.4440597865
_cell_angle_beta                        37.444060043
_cell_angle_gamma                       29.4411116601
_chemical_name_systematic               'Generated by pymatgen'
_symmetry_Int_Tables_number             1
_chemical_formula_structural            Sr3Cr2O7
_chemical_formula_sum                   'Sr3 Cr2 O7'
_cell_volume                            285.786392963
_cell_formula_units_Z                   1
loop_
  _symmetry_equiv_pos_site_id
  _symmetry_equiv_pos_as_xyz
   1  'x, y, z'
 
loop_
  _atom_site_type_symbol
  _atom_site_label
  _atom_site_symmetry_multiplicity
  _atom_site_fract_x
  _atom_site_fract_y
  _atom_site_fract_z
  _atom_site_attached_hydrogens
  _atom_site_B_iso_or_equiv
  _atom_site_occupancy
   Sr  Sr1  1  0.839559  0.839559  0.331742  0  .  1
   Sr  Sr2  1  0.160441  0.160441  0.668258  0  .  1
   Sr  Sr3  1  0.500000  0.500000  0.000000  0  .  1
   Cr  Cr4  1  0.097574  0.097574  0.449038  0  .  1
   Cr  Cr5  1  0.902426  0.902426  0.550962  0  .  1
   O  O6  1  0.286100  0.921480  0.564076  0  .  1
   O  O7  1  0.713900  0.078520  0.435924  0  .  1
   O  O8  1  0.921480  0.286100  0.564076  0  .  1
   O  O9  1  0.000000  0.000000  0.000000  0  .  1
   O  O10  1  0.078520  0.713900  0.435924  0  .  1
   O  O11  1  0.670943  0.670943  0.358482  0  .  1
   O  O12  1  0.329057  0.329057  0.641518  0  .  1
 
