#\#CIF1.1
##########################################################################
#               Crystallographic Information Format file 
#               Produced by PyCifRW module
# 
#  This is a CIF file.  CIF has been adopted by the International
#  Union of Crystallography as the standard for data archiving and 
#  transmission.
#
#  For information on this file format, follow the CIF links at
#  http://www.iucr.org
##########################################################################

data_Sr3Co3O8
_symmetry_space_group_name_H-M          'P 1'
_cell_length_a                          5.60363911961
_cell_length_b                          5.60363911961
_cell_length_c                          12.0706657843
_cell_angle_alpha                       75.9940786459
_cell_angle_beta                        75.9940786459
_cell_angle_gamma                       89.8391773299
_chemical_name_systematic               'Generated by pymatgen'
_symmetry_Int_Tables_number             1
_chemical_formula_structural            Sr3Co3O8
_chemical_formula_sum                   'Sr6 Co6 O16'
_cell_volume                            356.200119613
_cell_formula_units_Z                   2
loop_
  _symmetry_equiv_pos_site_id
  _symmetry_equiv_pos_as_xyz
   1  'x, y, z'
 
loop_
  _atom_site_type_symbol
  _atom_site_label
  _atom_site_symmetry_multiplicity
  _atom_site_fract_x
  _atom_site_fract_y
  _atom_site_fract_z
  _atom_site_attached_hydrogens
  _atom_site_B_iso_or_equiv
  _atom_site_occupancy
   Sr  Sr1  1  0.000000  0.000000  0.000000  0  .  1
   Sr  Sr2  1  0.500000  0.500000  0.000000  0  .  1
   Sr  Sr3  1  0.329797  0.343242  0.328255  0  .  1
   Sr  Sr4  1  0.156758  0.170203  0.671745  0  .  1
   Sr  Sr5  1  0.670203  0.656758  0.671745  0  .  1
   Sr  Sr6  1  0.843242  0.829797  0.328255  0  .  1
   Co  Co7  1  0.575397  0.075397  0.837408  0  .  1
   Co  Co8  1  0.424603  0.924603  0.162592  0  .  1
   Co  Co9  1  0.240993  0.740993  0.495589  0  .  1
   Co  Co10  1  0.092715  0.592715  0.821130  0  .  1
   Co  Co11  1  0.907285  0.407285  0.178870  0  .  1
   Co  Co12  1  0.759007  0.259007  0.504411  0  .  1
   O  O13  1  0.500000  0.000000  0.000000  0  .  1
   O  O14  1  0.000000  0.000000  0.500000  0  .  1
   O  O15  1  0.151157  0.199332  0.157028  0  .  1
   O  O16  1  0.688061  0.188061  0.145445  0  .  1
   O  O17  1  0.159363  0.659363  0.176573  0  .  1
   O  O18  1  0.000000  0.500000  0.500000  0  .  1
   O  O19  1  0.300668  0.348843  0.842972  0  .  1
   O  O20  1  0.699332  0.651157  0.157028  0  .  1
   O  O21  1  0.500000  0.500000  0.500000  0  .  1
   O  O22  1  0.362705  0.862705  0.334793  0  .  1
   O  O23  1  0.769128  0.269128  0.350837  0  .  1
   O  O24  1  0.230872  0.730872  0.649163  0  .  1
   O  O25  1  0.637295  0.137295  0.665207  0  .  1
   O  O26  1  0.311939  0.811939  0.854555  0  .  1
   O  O27  1  0.840637  0.340637  0.823427  0  .  1
   O  O28  1  0.848843  0.800668  0.842972  0  .  1
 
