#\#CIF1.1
##########################################################################
#               Crystallographic Information Format file 
#               Produced by PyCifRW module
# 
#  This is a CIF file.  CIF has been adopted by the International
#  Union of Crystallography as the standard for data archiving and 
#  transmission.
#
#  For information on this file format, follow the CIF links at
#  http://www.iucr.org
##########################################################################

data_Sr3Cr2O8
_symmetry_space_group_name_H-M          'P 1'
_cell_length_a                          7.52366538418
_cell_length_b                          7.52366538523
_cell_length_c                          7.52366538658
_cell_angle_alpha                       44.2085881179
_cell_angle_beta                        44.2085880707
_cell_angle_gamma                       44.2085881533
_chemical_name_systematic               'Generated by pymatgen'
_symmetry_Int_Tables_number             1
_chemical_formula_structural            Sr3Cr2O8
_chemical_formula_sum                   'Sr3 Cr2 O8'
_cell_volume                            188.14730259
_cell_formula_units_Z                   1
loop_
  _symmetry_equiv_pos_site_id
  _symmetry_equiv_pos_as_xyz
   1  'x, y, z'
 
loop_
  _atom_site_type_symbol
  _atom_site_label
  _atom_site_symmetry_multiplicity
  _atom_site_fract_x
  _atom_site_fract_y
  _atom_site_fract_z
  _atom_site_attached_hydrogens
  _atom_site_B_iso_or_equiv
  _atom_site_occupancy
   O  O1  1  0.268800  0.268800  0.767486  0  .  1
   O  O2  1  0.268799  0.767487  0.268799  0  .  1
   O  O3  1  0.767485  0.268800  0.268800  0  .  1
   O  O4  1  0.232514  0.731200  0.731200  0  .  1
   O  O5  1  0.731200  0.731200  0.232515  0  .  1
   O  O6  1  0.321910  0.321908  0.321910  0  .  1
   O  O7  1  0.731199  0.232515  0.731200  0  .  1
   O  O8  1  0.678090  0.678092  0.678092  0  .  1
   Cr  Cr9  1  0.594033  0.594031  0.594033  0  .  1
   Cr  Cr10  1  0.405967  0.405968  0.405967  0  .  1
   Sr  Sr11  1  0.797247  0.797245  0.797246  0  .  1
   Sr  Sr12  1  0.202754  0.202755  0.202753  0  .  1
   Sr  Sr13  1  0.000000  0.000000  0.000000  0  .  1
 
