#\#CIF1.1
##########################################################################
#               Crystallographic Information Format file 
#               Produced by PyCifRW module
# 
#  This is a CIF file.  CIF has been adopted by the International
#  Union of Crystallography as the standard for data archiving and 
#  transmission.
#
#  For information on this file format, follow the CIF links at
#  http://www.iucr.org
##########################################################################

data_Sr3Mn2O7
_symmetry_space_group_name_H-M          'P 1'
_cell_length_a                          3.88005246077
_cell_length_b                          3.88005245834
_cell_length_c                          10.5039050584
_cell_angle_alpha                       100.643392345
_cell_angle_beta                        100.64339235
_cell_angle_gamma                       90.0000000509
_chemical_name_systematic               'Generated by pymatgen'
_symmetry_Int_Tables_number             1
_chemical_formula_structural            Sr3Mn2O7
_chemical_formula_sum                   'Sr3 Mn2 O7'
_cell_volume                            152.644621522
_cell_formula_units_Z                   1
loop_
  _symmetry_equiv_pos_site_id
  _symmetry_equiv_pos_as_xyz
   1  'x, y, z'
 
loop_
  _atom_site_type_symbol
  _atom_site_label
  _atom_site_symmetry_multiplicity
  _atom_site_fract_x
  _atom_site_fract_y
  _atom_site_fract_z
  _atom_site_attached_hydrogens
  _atom_site_B_iso_or_equiv
  _atom_site_occupancy
   O  O1  1  0.904230  0.404231  0.808462  0  .  1
   O  O2  1  0.404231  0.904231  0.808462  0  .  1
   O  O3  1  0.095770  0.595769  0.191538  0  .  1
   O  O4  1  0.595769  0.095769  0.191538  0  .  1
   O  O5  1  0.807380  0.807382  0.614762  0  .  1
   O  O6  1  0.000000  0.000000  0.000000  0  .  1
   O  O7  1  0.192618  0.192618  0.385238  0  .  1
   Mn  Mn8  1  0.097309  0.097309  0.194617  0  .  1
   Mn  Mn9  1  0.902691  0.902691  0.805383  0  .  1
   Sr  Sr10  1  0.499999  0.500000  1.000000  0  .  1
   Sr  Sr11  1  0.317031  0.317033  0.634064  0  .  1
   Sr  Sr12  1  0.682969  0.682967  0.365935  0  .  1
 
