#\#CIF1.1
##########################################################################
#               Crystallographic Information Format file 
#               Produced by PyCifRW module
# 
#  This is a CIF file.  CIF has been adopted by the International
#  Union of Crystallography as the standard for data archiving and 
#  transmission.
#
#  For information on this file format, follow the CIF links at
#  http://www.iucr.org
##########################################################################

data_Sr4Fe6O13
_symmetry_space_group_name_H-M          'P 1'
_cell_length_a                          5.46047290736
_cell_length_b                          11.1436086852
_cell_length_c                          11.7188511499
_cell_angle_alpha                       118.388495643
_cell_angle_beta                        103.470943756
_cell_angle_gamma                       89.9991781291
_chemical_name_systematic               'Generated by pymatgen'
_symmetry_Int_Tables_number             1
_chemical_formula_structural            Sr4Fe6O13
_chemical_formula_sum                   'Sr8 Fe12 O26'
_cell_volume                            604.940538005
_cell_formula_units_Z                   2
loop_
  _symmetry_equiv_pos_site_id
  _symmetry_equiv_pos_as_xyz
   1  'x, y, z'
 
loop_
  _atom_site_type_symbol
  _atom_site_label
  _atom_site_symmetry_multiplicity
  _atom_site_fract_x
  _atom_site_fract_y
  _atom_site_fract_z
  _atom_site_attached_hydrogens
  _atom_site_B_iso_or_equiv
  _atom_site_occupancy
   Sr  Sr1  1  0.353287  0.716435  0.688841  0  .  1
   Sr  Sr2  1  0.664456  0.283537  0.311153  0  .  1
   Sr  Sr3  1  0.853274  0.972400  0.688846  0  .  1
   Sr  Sr4  1  0.164461  0.027574  0.311170  0  .  1
   Sr  Sr5  1  0.165137  0.535674  0.326487  0  .  1
   Sr  Sr6  1  0.838609  0.464295  0.673490  0  .  1
   Sr  Sr7  1  0.665122  0.790834  0.326498  0  .  1
   Sr  Sr8  1  0.338587  0.209155  0.673487  0  .  1
   Fe  Fe9  1  0.110166  0.163064  0.068327  0  .  1
   Fe  Fe10  1  0.041901  0.836959  0.931686  0  .  1
   Fe  Fe11  1  0.610194  0.905246  0.068307  0  .  1
   Fe  Fe12  1  0.541886  0.094770  0.931702  0  .  1
   Fe  Fe13  1  0.463576  0.555601  0.903634  0  .  1
   Fe  Fe14  1  0.559929  0.444385  0.096338  0  .  1
   Fe  Fe15  1  0.963586  0.348029  0.903633  0  .  1
   Fe  Fe16  1  0.059976  0.652005  0.096359  0  .  1
   Fe  Fe17  1  0.254688  0.375086  0.503721  0  .  1
   Fe  Fe18  1  0.750928  0.624891  0.496271  0  .  1
   Fe  Fe19  1  0.754610  0.128625  0.503745  0  .  1
   Fe  Fe20  1  0.250928  0.871356  0.496262  0  .  1
   O  O21  1  0.128871  0.258614  0.251646  0  .  1
   O  O22  1  0.877246  0.741452  0.748353  0  .  1
   O  O23  1  0.628878  0.993010  0.251621  0  .  1
   O  O24  1  0.377241  0.006938  0.748374  0  .  1
   O  O25  1  0.342989  0.469757  0.711157  0  .  1
   O  O26  1  0.631828  0.530240  0.288850  0  .  1
   O  O27  1  0.842928  0.241451  0.711212  0  .  1
   O  O28  1  0.131791  0.758574  0.288796  0  .  1
   O  O29  1  0.497619  0.242867  0.480947  0  .  1
   O  O30  1  0.016623  0.757096  0.519022  0  .  1
   O  O31  1  0.997648  0.238120  0.480984  0  .  1
   O  O32  1  0.516674  0.761833  0.519000  0  .  1
   O  O33  1  0.503981  0.503211  0.504660  0  .  1
   O  O34  1  -0.000706  0.496800  0.495334  0  .  1
   O  O35  1  0.003950  0.001443  0.504690  0  .  1
   O  O36  1  0.499225  0.998508  0.495329  0  .  1
   O  O37  1  0.444610  0.258661  0.072376  0  .  1
   O  O38  1  0.372223  0.741346  0.927628  0  .  1
   O  O39  1  0.944633  0.813721  0.072342  0  .  1
   O  O40  1  0.872240  0.186327  0.927673  0  .  1
   O  O41  1  0.923071  0.470071  0.092698  0  .  1
   O  O42  1  0.830390  0.530008  0.907313  0  .  1
   O  O43  1  0.423095  0.622662  0.092667  0  .  1
   O  O44  1  0.330379  0.377333  0.907347  0  .  1
   O  O45  1  0.300635  0.000015  0.000009  0  .  1
   O  O46  1  0.800635  0.000021  0.000015  0  .  1
 
