#\#CIF1.1
##########################################################################
#               Crystallographic Information Format file 
#               Produced by PyCifRW module
# 
#  This is a CIF file.  CIF has been adopted by the International
#  Union of Crystallography as the standard for data archiving and 
#  transmission.
#
#  For information on this file format, follow the CIF links at
#  http://www.iucr.org
##########################################################################

data_Sr4Mn3O10
_symmetry_space_group_name_H-M          'P 1'
_cell_length_a                          5.54850397
_cell_length_b                          6.85932164917
_cell_length_c                          12.89182104
_cell_angle_alpha                       90.0
_cell_angle_beta                        90.0
_cell_angle_gamma                       113.856659959
_chemical_name_systematic               'Generated by pymatgen'
_symmetry_Int_Tables_number             1
_chemical_formula_structural            Sr4Mn3O10
_chemical_formula_sum                   'Sr8 Mn6 O20'
_cell_volume                            448.728458288
_cell_formula_units_Z                   2
loop_
  _symmetry_equiv_pos_site_id
  _symmetry_equiv_pos_as_xyz
   1  'x, y, z'
 
loop_
  _atom_site_type_symbol
  _atom_site_label
  _atom_site_symmetry_multiplicity
  _atom_site_fract_x
  _atom_site_fract_y
  _atom_site_fract_z
  _atom_site_attached_hydrogens
  _atom_site_B_iso_or_equiv
  _atom_site_occupancy
   O  O1  1  0.364798  0.229597  0.750000  0  .  1
   O  O2  1  0.135202  0.770402  0.250000  0  .  1
   O  O3  1  0.635200  0.770402  0.250000  0  .  1
   O  O4  1  0.864798  0.229597  0.750000  0  .  1
   O  O5  1  0.161314  0.780445  0.462417  0  .  1
   O  O6  1  0.380869  0.219555  0.537583  0  .  1
   O  O7  1  0.338686  0.219555  0.962418  0  .  1
   O  O8  1  0.119131  0.780445  0.037583  0  .  1
   O  O9  1  0.838686  0.219555  0.537583  0  .  1
   O  O10  1  0.619131  0.780445  0.462417  0  .  1
   O  O11  1  0.661314  0.780445  0.037583  0  .  1
   O  O12  1  0.880870  0.219555  0.962418  0  .  1
   O  O13  1  0.777177  0.554354  0.655601  0  .  1
   O  O14  1  0.222823  0.445646  0.344398  0  .  1
   O  O15  1  0.036850  0.073700  0.144841  0  .  1
   O  O16  1  0.963150  0.926300  0.855160  0  .  1
   O  O17  1  0.463150  0.926300  0.644841  0  .  1
   O  O18  1  0.722823  0.445646  0.155602  0  .  1
   O  O19  1  0.277177  0.554354  0.844398  0  .  1
   O  O20  1  0.536850  0.073700  0.355160  0  .  1
   Mn  Mn21  1  0.632136  0.264272  0.652526  0  .  1
   Mn  Mn22  1  0.367864  0.735728  0.347474  0  .  1
   Mn  Mn23  1  0.867864  0.735728  0.152526  0  .  1
   Mn  Mn24  1  0.132136  0.264272  0.847474  0  .  1
   Mn  Mn25  1  0.500000  0.000000  0.500000  0  .  1
   Mn  Mn26  1  0.000000  0.000000  0.000000  0  .  1
   Sr  Sr27  1  0.237264  0.474528  0.113407  0  .  1
   Sr  Sr28  1  0.762736  0.525471  0.886592  0  .  1
   Sr  Sr29  1  0.737264  0.474528  0.386593  0  .  1
   Sr  Sr30  1  0.262736  0.525471  0.613407  0  .  1
   Sr  Sr31  1  0.970360  0.940720  0.643753  0  .  1
   Sr  Sr32  1  0.029641  0.059281  0.356247  0  .  1
   Sr  Sr33  1  0.529641  0.059281  0.143753  0  .  1
   Sr  Sr34  1  0.470360  0.940720  0.856247  0  .  1
 
