#\#CIF1.1
##########################################################################
#               Crystallographic Information Format file 
#               Produced by PyCifRW module
# 
#  This is a CIF file.  CIF has been adopted by the International
#  Union of Crystallography as the standard for data archiving and 
#  transmission.
#
#  For information on this file format, follow the CIF links at
#  http://www.iucr.org
##########################################################################

data_Sr4V3O10
_symmetry_space_group_name_H-M          'P 1'
_cell_length_a                          3.89890932185
_cell_length_b                          3.89918781517
_cell_length_c                          14.3685557197
_cell_angle_alpha                       97.8736156273
_cell_angle_beta                        97.7968130716
_cell_angle_gamma                       90.0141563379
_chemical_name_systematic               'Generated by pymatgen'
_symmetry_Int_Tables_number             1
_chemical_formula_structural            Sr4V3O10
_chemical_formula_sum                   'Sr4 V3 O10'
_cell_volume                            214.33999753
_cell_formula_units_Z                   1
loop_
  _symmetry_equiv_pos_site_id
  _symmetry_equiv_pos_as_xyz
   1  'x, y, z'
 
loop_
  _atom_site_type_symbol
  _atom_site_label
  _atom_site_symmetry_multiplicity
  _atom_site_fract_x
  _atom_site_fract_y
  _atom_site_fract_z
  _atom_site_attached_hydrogens
  _atom_site_B_iso_or_equiv
  _atom_site_occupancy
   O  O1  1  0.790901  0.790861  0.581859  0  .  1
   O  O2  1  0.209167  0.209134  0.418152  0  .  1
   O  O3  1  0.861598  0.361593  0.723232  0  .  1
   O  O4  1  0.361571  0.861606  0.723204  0  .  1
   O  O5  1  0.138405  0.638412  0.276769  0  .  1
   O  O6  1  0.638428  0.138396  0.276793  0  .  1
   O  O7  1  0.931220  0.931308  0.862653  0  .  1
   O  O8  1  0.499984  0.000001  0.000003  0  .  1
   O  O9  1  0.068744  0.068700  0.137339  0  .  1
   O  O10  1  -0.000008  0.500000  -0.000001  0  .  1
   V  V11  1  0.860832  0.860852  0.721658  0  .  1
   V  V12  1  0.139193  0.139146  0.278332  0  .  1
   V  V13  1  -0.000043  -0.000002  0.000001  0  .  1
   Sr  Sr14  1  0.702454  0.702432  0.404915  0  .  1
   Sr  Sr15  1  0.297582  0.297559  0.595086  0  .  1
   Sr  Sr16  1  0.568553  0.568554  0.137034  0  .  1
   Sr  Sr17  1  0.431420  0.431453  0.862971  0  .  1
 
