#\#CIF1.1
##########################################################################
#               Crystallographic Information Format file 
#               Produced by PyCifRW module
# 
#  This is a CIF file.  CIF has been adopted by the International
#  Union of Crystallography as the standard for data archiving and 
#  transmission.
#
#  For information on this file format, follow the CIF links at
#  http://www.iucr.org
##########################################################################

data_Sr8Fe8O23
_symmetry_space_group_name_H-M          'P 1'
_cell_length_a                          7.83676819721
_cell_length_b                          8.76665477972
_cell_length_c                          8.76665477899
_cell_angle_alpha                       78.4760618847
_cell_angle_beta                        63.450899814
_cell_angle_gamma                       63.4508998053
_chemical_name_systematic               'Generated by pymatgen'
_symmetry_Int_Tables_number             1
_chemical_formula_structural            Sr8Fe8O23
_chemical_formula_sum                   'Sr8 Fe8 O23'
_cell_volume                            481.965178555
_cell_formula_units_Z                   1
loop_
  _symmetry_equiv_pos_site_id
  _symmetry_equiv_pos_as_xyz
   1  'x, y, z'
 
loop_
  _atom_site_type_symbol
  _atom_site_label
  _atom_site_symmetry_multiplicity
  _atom_site_fract_x
  _atom_site_fract_y
  _atom_site_fract_z
  _atom_site_attached_hydrogens
  _atom_site_B_iso_or_equiv
  _atom_site_occupancy
   O  O1  1  0.000000  0.500000  0.500000  0  .  1
   O  O2  1  0.500000  0.500000  0.500000  0  .  1
   O  O3  1  0.875252  0.500000  0.249497  0  .  1
   O  O4  1  0.124748  0.750503  0.500000  0  .  1
   O  O5  1  0.375252  0.249497  0.500000  0  .  1
   O  O6  1  0.624748  0.500000  0.750503  0  .  1
   O  O7  1  0.124748  0.500000  0.750503  0  .  1
   O  O8  1  0.875252  0.249497  0.500000  0  .  1
   O  O9  1  0.624748  0.750503  0.500000  0  .  1
   O  O10  1  0.375252  0.500000  0.249497  0  .  1
   O  O11  1  0.263732  0.000000  0.472536  0  .  1
   O  O12  1  0.736268  0.527464  0.000000  0  .  1
   O  O13  1  0.263732  0.472536  0.000000  0  .  1
   O  O14  1  0.736268  0.000000  0.527464  0  .  1
   O  O15  1  0.901898  0.759472  0.000000  0  .  1
   O  O16  1  0.661370  0.240528  0.000000  0  .  1
   O  O17  1  0.500000  0.000000  0.000000  0  .  1
   O  O18  1  0.338630  0.000000  0.759472  0  .  1
   O  O19  1  0.098102  0.240528  0.000000  0  .  1
   O  O20  1  0.338630  0.759472  0.000000  0  .  1
   O  O21  1  0.098102  0.000000  0.240528  0  .  1
   O  O22  1  0.661370  0.000000  0.240528  0  .  1
   O  O23  1  0.901898  0.000000  0.759472  0  .  1
   Fe  Fe24  1  0.250000  0.500000  0.500000  0  .  1
   Fe  Fe25  1  0.750000  0.500000  0.500000  0  .  1
   Fe  Fe26  1  0.000000  0.000000  0.500000  0  .  1
   Fe  Fe27  1  0.500000  0.500000  0.000000  0  .  1
   Fe  Fe28  1  0.000000  0.500000  0.000000  0  .  1
   Fe  Fe29  1  0.500000  0.000000  0.500000  0  .  1
   Fe  Fe30  1  0.744547  0.000000  0.000000  0  .  1
   Fe  Fe31  1  0.255453  0.000000  0.000000  0  .  1
   Sr  Sr32  1  0.247625  0.252375  0.252375  0  .  1
   Sr  Sr33  1  0.500000  0.747625  0.252375  0  .  1
   Sr  Sr34  1  0.500000  0.252375  0.747625  0  .  1
   Sr  Sr35  1  0.752375  0.747625  0.747625  0  .  1
   Sr  Sr36  1  0.740596  0.259404  0.259404  0  .  1
   Sr  Sr37  1  0.000000  0.740596  0.259404  0  .  1
   Sr  Sr38  1  0.000000  0.259404  0.740596  0  .  1
   Sr  Sr39  1  0.259404  0.740596  0.740596  0  .  1
 
