#\#CIF1.1
##########################################################################
#               Crystallographic Information Format file 
#               Produced by PyCifRW module
# 
#  This is a CIF file.  CIF has been adopted by the International
#  Union of Crystallography as the standard for data archiving and 
#  transmission.
#
#  For information on this file format, follow the CIF links at
#  http://www.iucr.org
##########################################################################

data_Sr9Cr5O18
_symmetry_space_group_name_H-M          'P 1'
_cell_length_a                          5.46575194386
_cell_length_b                          10.94101458
_cell_length_c                          15.4608392385
_cell_angle_alpha                       90.0
_cell_angle_beta                        100.181161848
_cell_angle_gamma                       90.0
_chemical_name_systematic               'Generated by pymatgen'
_symmetry_Int_Tables_number             1
_chemical_formula_structural            Sr9Cr5O18
_chemical_formula_sum                   'Sr18 Cr10 O36'
_cell_volume                            910.013153198
_cell_formula_units_Z                   2
loop_
  _symmetry_equiv_pos_site_id
  _symmetry_equiv_pos_as_xyz
   1  'x, y, z'
 
loop_
  _atom_site_type_symbol
  _atom_site_label
  _atom_site_symmetry_multiplicity
  _atom_site_fract_x
  _atom_site_fract_y
  _atom_site_fract_z
  _atom_site_attached_hydrogens
  _atom_site_B_iso_or_equiv
  _atom_site_occupancy
   Sr  Sr1  1  0.795260  0.749121  0.590198  0  .  1
   Sr  Sr2  1  0.204740  0.249121  0.409802  0  .  1
   Sr  Sr3  1  0.794938  0.249121  0.590198  0  .  1
   Sr  Sr4  1  0.205062  0.749121  0.409802  0  .  1
   Sr  Sr5  1  0.292329  0.998833  0.586554  0  .  1
   Sr  Sr6  1  0.707671  0.498833  0.413446  0  .  1
   Sr  Sr7  1  0.294226  0.498833  0.586554  0  .  1
   Sr  Sr8  1  0.705774  0.998833  0.413446  0  .  1
   Sr  Sr9  1  0.910056  0.747618  0.832490  0  .  1
   Sr  Sr10  1  0.089944  0.247618  0.167510  0  .  1
   Sr  Sr11  1  0.922434  0.247618  0.832490  0  .  1
   Sr  Sr12  1  0.077566  0.747618  0.167510  0  .  1
   Sr  Sr13  1  0.415003  0.001805  0.831653  0  .  1
   Sr  Sr14  1  0.584997  0.501805  0.168347  0  .  1
   Sr  Sr15  1  0.416650  0.501805  0.831653  0  .  1
   Sr  Sr16  1  0.583350  0.001805  0.168347  0  .  1
   Sr  Sr17  1  0.995520  0.500520  0.000000  0  .  1
   Sr  Sr18  1  0.004480  0.000520  1.000000  0  .  1
   Cr  Cr19  1  0.348747  0.748890  0.697793  0  .  1
   Cr  Cr20  1  0.651253  0.248890  0.302207  0  .  1
   Cr  Cr21  1  0.349048  0.248890  0.697793  0  .  1
   Cr  Cr22  1  0.650952  0.748890  0.302207  0  .  1
   Cr  Cr23  1  0.853590  0.998658  0.709328  0  .  1
   Cr  Cr24  1  0.146410  0.498658  0.290672  0  .  1
   Cr  Cr25  1  0.855738  0.498658  0.709328  0  .  1
   Cr  Cr26  1  0.144262  0.998658  0.290672  0  .  1
   Cr  Cr27  1  0.559289  0.279753  0.000000  0  .  1
   Cr  Cr28  1  0.440711  0.779753  0.000000  0  .  1
   O  O29  1  0.598205  0.628047  0.712391  0  .  1
   O  O30  1  0.401795  0.128047  0.287609  0  .  1
   O  O31  1  0.114185  0.128047  0.712391  0  .  1
   O  O32  1  0.885815  0.628047  0.287609  0  .  1
   O  O33  1  0.115896  0.628584  0.714515  0  .  1
   O  O34  1  0.884104  0.128584  0.285485  0  .  1
   O  O35  1  0.598620  0.128584  0.714515  0  .  1
   O  O36  1  0.401380  0.628584  0.285485  0  .  1
   O  O37  1  0.597790  0.869285  0.714591  0  .  1
   O  O38  1  0.402210  0.369285  0.285409  0  .  1
   O  O39  1  0.116800  0.369285  0.714591  0  .  1
   O  O40  1  0.883200  0.869285  0.285409  0  .  1
   O  O41  1  0.116364  0.869047  0.716271  0  .  1
   O  O42  1  0.883636  0.369047  0.283729  0  .  1
   O  O43  1  0.599908  0.369047  0.716271  0  .  1
   O  O44  1  0.918664  0.999601  0.844318  0  .  1
   O  O45  1  0.400092  0.869047  0.283729  0  .  1
   O  O46  1  0.715269  0.249692  0.426660  0  .  1
   O  O47  1  0.288607  0.249692  0.573340  0  .  1
   O  O48  1  0.711393  0.749692  0.426660  0  .  1
   O  O49  1  0.786353  0.997979  0.575702  0  .  1
   O  O50  1  0.213647  0.497979  0.424298  0  .  1
   O  O51  1  0.789349  0.497979  0.575702  0  .  1
   O  O52  1  0.210651  0.997979  0.424298  0  .  1
   O  O53  1  0.493731  0.725068  0.894623  0  .  1
   O  O54  1  0.506269  0.225068  0.105377  0  .  1
   O  O55  1  0.400892  0.225068  0.894623  0  .  1
   O  O56  1  0.599108  0.725068  0.105377  0  .  1
   O  O57  1  0.484978  0.946033  0.000000  0  .  1
   O  O58  1  0.515022  0.446033  1.000000  0  .  1
   O  O59  1  0.106560  0.759234  1.000000  0  .  1
   O  O60  1  0.893440  0.259234  0.000000  0  .  1
   O  O61  1  0.074346  0.999601  0.155682  0  .  1
   O  O62  1  0.925654  0.499601  0.844318  0  .  1
   O  O63  1  0.081336  0.499601  0.155682  0  .  1
   O  O64  1  0.284731  0.749692  0.573340  0  .  1
 
