#\#CIF1.1
##########################################################################
#               Crystallographic Information Format file 
#               Produced by PyCifRW module
# 
#  This is a CIF file.  CIF has been adopted by the International
#  Union of Crystallography as the standard for data archiving and 
#  transmission.
#
#  For information on this file format, follow the CIF links at
#  http://www.iucr.org
##########################################################################

data_SrCo6O11
_symmetry_space_group_name_H-M          'P 1'
_cell_length_a                          5.6391909
_cell_length_b                          5.6391909033
_cell_length_c                          12.81793349
_cell_angle_alpha                       90.0
_cell_angle_beta                        90.0
_cell_angle_gamma                       119.999999981
_chemical_name_systematic               'Generated by pymatgen'
_symmetry_Int_Tables_number             1
_chemical_formula_structural            SrCo6O11
_chemical_formula_sum                   'Sr2 Co12 O22'
_cell_volume                            353.006123698
_cell_formula_units_Z                   2
loop_
  _symmetry_equiv_pos_site_id
  _symmetry_equiv_pos_as_xyz
   1  'x, y, z'
 
loop_
  _atom_site_type_symbol
  _atom_site_label
  _atom_site_symmetry_multiplicity
  _atom_site_fract_x
  _atom_site_fract_y
  _atom_site_fract_z
  _atom_site_attached_hydrogens
  _atom_site_B_iso_or_equiv
  _atom_site_occupancy
   O  O1  1  0.666667  0.333333  0.078308  0  .  1
   O  O2  1  0.333333  0.666667  0.578308  0  .  1
   O  O3  1  0.333333  0.666667  0.921692  0  .  1
   O  O4  1  0.666667  0.333333  0.421692  0  .  1
   O  O5  1  0.856890  0.143110  0.250000  0  .  1
   O  O6  1  0.713781  0.856890  0.750000  0  .  1
   O  O7  1  0.143110  0.286219  0.750000  0  .  1
   O  O8  1  0.856890  0.713781  0.250000  0  .  1
   O  O9  1  0.286219  0.143110  0.250000  0  .  1
   O  O10  1  0.143110  0.856890  0.750000  0  .  1
   O  O11  1  0.175589  0.351178  0.421042  0  .  1
   O  O12  1  0.648822  0.824411  0.421042  0  .  1
   O  O13  1  0.175589  0.824411  0.421042  0  .  1
   O  O14  1  0.824411  0.175589  0.921042  0  .  1
   O  O15  1  0.175589  0.824411  0.078958  0  .  1
   O  O16  1  0.351178  0.175589  0.578958  0  .  1
   O  O17  1  0.824411  0.648822  0.578958  0  .  1
   O  O18  1  0.175589  0.351178  0.078958  0  .  1
   O  O19  1  0.648822  0.824411  0.078958  0  .  1
   O  O20  1  0.351178  0.175589  0.921042  0  .  1
   O  O21  1  0.824411  0.648822  0.921042  0  .  1
   O  O22  1  0.824411  0.175589  0.578958  0  .  1
   Co  Co23  1  0.333333  0.666667  0.750000  0  .  1
   Co  Co24  1  0.666667  0.333333  0.250000  0  .  1
   Co  Co25  1  0.000000  0.000000  0.350916  0  .  1
   Co  Co26  1  0.000000  0.000000  0.850916  0  .  1
   Co  Co27  1  0.000000  0.000000  0.649084  0  .  1
   Co  Co28  1  0.000000  0.000000  0.149084  0  .  1
   Co  Co29  1  0.500000  0.500000  0.500000  0  .  1
   Co  Co30  1  0.000000  0.500000  0.000000  0  .  1
   Co  Co31  1  0.500000  0.000000  0.000000  0  .  1
   Co  Co32  1  0.500000  0.000000  0.500000  0  .  1
   Co  Co33  1  0.000000  0.500000  0.500000  0  .  1
   Co  Co34  1  0.500000  0.500000  0.000000  0  .  1
   Sr  Sr35  1  0.666667  0.333333  0.750000  0  .  1
   Sr  Sr36  1  0.333333  0.666667  0.250000  0  .  1
 
