#\#CIF1.1
##########################################################################
#               Crystallographic Information Format file 
#               Produced by PyCifRW module
# 
#  This is a CIF file.  CIF has been adopted by the International
#  Union of Crystallography as the standard for data archiving and 
#  transmission.
#
#  For information on this file format, follow the CIF links at
#  http://www.iucr.org
##########################################################################

data_SrCr2O7
_symmetry_space_group_name_H-M          'P 1'
_cell_length_a                          9.82832691
_cell_length_b                          11.3410174
_cell_length_c                          11.3410174
_cell_angle_alpha                       90.0
_cell_angle_beta                        90.0
_cell_angle_gamma                       90.0
_chemical_name_systematic               'Generated by pymatgen'
_symmetry_Int_Tables_number             1
_chemical_formula_structural            SrCr2O7
_chemical_formula_sum                   'Sr8 Cr16 O56'
_cell_volume                            1264.10639119
_cell_formula_units_Z                   8
loop_
  _symmetry_equiv_pos_site_id
  _symmetry_equiv_pos_as_xyz
   1  'x, y, z'
 
loop_
  _atom_site_type_symbol
  _atom_site_label
  _atom_site_symmetry_multiplicity
  _atom_site_fract_x
  _atom_site_fract_y
  _atom_site_fract_z
  _atom_site_attached_hydrogens
  _atom_site_B_iso_or_equiv
  _atom_site_occupancy
   Sr  Sr1  1  0.250000  0.550196  0.050196  0  .  1
   Sr  Sr2  1  0.750000  0.449804  0.550196  0  .  1
   Sr  Sr3  1  0.250000  0.949804  0.449804  0  .  1
   Sr  Sr4  1  0.250000  0.949804  0.050196  0  .  1
   Sr  Sr5  1  0.750000  0.050196  0.550196  0  .  1
   Sr  Sr6  1  0.750000  0.449804  0.949804  0  .  1
   Sr  Sr7  1  0.750000  0.050196  0.949804  0  .  1
   Sr  Sr8  1  0.250000  0.550196  0.449804  0  .  1
   Cr  Cr9  1  0.554670  0.750000  0.399711  0  .  1
   Cr  Cr10  1  0.945330  0.899711  0.250000  0  .  1
   Cr  Cr11  1  0.484289  0.610371  0.750000  0  .  1
   Cr  Cr12  1  0.015711  0.250000  0.389629  0  .  1
   Cr  Cr13  1  0.015711  0.250000  0.110371  0  .  1
   Cr  Cr14  1  0.054670  0.100289  0.750000  0  .  1
   Cr  Cr15  1  0.984289  0.750000  0.610371  0  .  1
   Cr  Cr16  1  0.554670  0.750000  0.100289  0  .  1
   Cr  Cr17  1  0.484289  0.889629  0.750000  0  .  1
   Cr  Cr18  1  0.945330  0.600289  0.250000  0  .  1
   Cr  Cr19  1  0.984289  0.750000  0.889629  0  .  1
   Cr  Cr20  1  0.515711  0.110371  0.250000  0  .  1
   Cr  Cr21  1  0.054670  0.399711  0.750000  0  .  1
   Cr  Cr22  1  0.515711  0.389629  0.250000  0  .  1
   Cr  Cr23  1  0.445330  0.250000  0.600289  0  .  1
   Cr  Cr24  1  0.445330  0.250000  0.899711  0  .  1
   O  O25  1  0.566326  0.750000  0.750000  0  .  1
   O  O26  1  0.885763  0.094876  0.750000  0  .  1
   O  O27  1  0.389113  0.601359  0.866649  0  .  1
   O  O28  1  0.112899  0.035876  0.867865  0  .  1
   O  O29  1  0.105255  0.750000  0.507925  0  .  1
   O  O30  1  0.894745  0.250000  0.007925  0  .  1
   O  O31  1  0.112899  0.035876  0.632135  0  .  1
   O  O32  1  0.610887  0.398641  0.133351  0  .  1
   O  O33  1  0.612899  0.867865  0.035876  0  .  1
   O  O34  1  0.610887  0.398641  0.366649  0  .  1
   O  O35  1  0.433674  0.250000  0.250000  0  .  1
   O  O36  1  0.389113  0.898641  0.866649  0  .  1
   O  O37  1  0.889113  0.633351  0.898641  0  .  1
   O  O38  1  0.387101  0.367865  0.964124  0  .  1
   O  O39  1  0.112899  0.464124  0.867865  0  .  1
   O  O40  1  0.110887  0.366649  0.398641  0  .  1
   O  O41  1  0.610887  0.101359  0.366649  0  .  1
   O  O42  1  0.114237  0.905124  0.250000  0  .  1
   O  O43  1  0.887101  0.964124  0.132135  0  .  1
   O  O44  1  0.612899  0.867865  0.464124  0  .  1
   O  O45  1  0.889113  0.866649  0.601359  0  .  1
   O  O46  1  0.614237  0.250000  0.905124  0  .  1
   O  O47  1  0.112899  0.464124  0.632135  0  .  1
   O  O48  1  0.105284  0.250000  0.750000  0  .  1
   O  O49  1  0.887101  0.535876  0.367865  0  .  1
   O  O50  1  0.385763  0.750000  0.094876  0  .  1
   O  O51  1  0.394716  0.250000  0.750000  0  .  1
   O  O52  1  0.394745  0.492075  0.250000  0  .  1
   O  O53  1  0.614237  0.250000  0.594876  0  .  1
   O  O54  1  0.612899  0.632135  0.035876  0  .  1
   O  O55  1  0.110887  0.133351  0.101359  0  .  1
   O  O56  1  0.889113  0.866649  0.898641  0  .  1
   O  O57  1  0.887101  0.535876  0.132135  0  .  1
   O  O58  1  0.110887  0.366649  0.101359  0  .  1
   O  O59  1  0.389113  0.601359  0.633351  0  .  1
   O  O60  1  0.933674  0.250000  0.250000  0  .  1
   O  O61  1  0.605255  0.992075  0.750000  0  .  1
   O  O62  1  0.394745  0.007925  0.250000  0  .  1
   O  O63  1  0.894716  0.750000  0.250000  0  .  1
   O  O64  1  0.610887  0.101359  0.133351  0  .  1
   O  O65  1  0.889113  0.633351  0.601359  0  .  1
   O  O66  1  0.110887  0.133351  0.398641  0  .  1
   O  O67  1  0.387101  0.132135  0.964124  0  .  1
   O  O68  1  0.887101  0.964124  0.367865  0  .  1
   O  O69  1  0.885763  0.405124  0.750000  0  .  1
   O  O70  1  0.605284  0.750000  0.250000  0  .  1
   O  O71  1  0.114237  0.594876  0.250000  0  .  1
   O  O72  1  0.105255  0.750000  0.992075  0  .  1
   O  O73  1  0.612899  0.632135  0.464124  0  .  1
   O  O74  1  0.066326  0.750000  0.750000  0  .  1
   O  O75  1  0.389113  0.898641  0.633351  0  .  1
   O  O76  1  0.387101  0.132135  0.535876  0  .  1
   O  O77  1  0.385763  0.750000  0.405124  0  .  1
   O  O78  1  0.894745  0.250000  0.492075  0  .  1
   O  O79  1  0.387101  0.367865  0.535876  0  .  1
   O  O80  1  0.605255  0.507925  0.750000  0  .  1
 
