#\#CIF1.1
##########################################################################
#               Crystallographic Information Format file 
#               Produced by PyCifRW module
# 
#  This is a CIF file.  CIF has been adopted by the International
#  Union of Crystallography as the standard for data archiving and 
#  transmission.
#
#  For information on this file format, follow the CIF links at
#  http://www.iucr.org
##########################################################################

data_SrCrO3
_symmetry_space_group_name_H-M          'P 1'
_cell_length_a                          5.55191533448
_cell_length_b                          5.55632351293
_cell_length_c                          32.2581575038
_cell_angle_alpha                       90.0852852961
_cell_angle_beta                        89.9242186915
_cell_angle_gamma                       120.123626632
_chemical_name_systematic               'Generated by pymatgen'
_symmetry_Int_Tables_number             1
_chemical_formula_structural            SrCrO3
_chemical_formula_sum                   'Sr14 Cr14 O42'
_cell_volume                            860.711493953
_cell_formula_units_Z                   14
loop_
  _symmetry_equiv_pos_site_id
  _symmetry_equiv_pos_as_xyz
   1  'x, y, z'
 
loop_
  _atom_site_type_symbol
  _atom_site_label
  _atom_site_symmetry_multiplicity
  _atom_site_fract_x
  _atom_site_fract_y
  _atom_site_fract_z
  _atom_site_attached_hydrogens
  _atom_site_B_iso_or_equiv
  _atom_site_occupancy
   Sr  Sr1  1  0.333610  0.666528  0.039835  0  .  1
   Sr  Sr2  1  0.332999  0.666385  0.176754  0  .  1
   Sr  Sr3  1  0.330822  0.663263  0.750004  0  .  1
   Sr  Sr4  1  0.998041  0.000775  0.105669  0  .  1
   Sr  Sr5  1  0.998876  0.004193  0.394109  0  .  1
   Sr  Sr6  1  0.002669  0.005531  0.605744  0  .  1
   Sr  Sr7  1  0.333049  0.667588  0.323199  0  .  1
   Sr  Sr8  1  0.333897  0.667914  0.459797  0  .  1
   Sr  Sr9  1  0.002403  0.004930  0.894465  0  .  1
   Sr  Sr10  1  0.668850  0.331486  0.250060  0  .  1
   Sr  Sr11  1  0.666421  0.332958  0.540138  0  .  1
   Sr  Sr12  1  0.667655  0.335016  0.676597  0  .  1
   Sr  Sr13  1  0.666363  0.334368  0.823540  0  .  1
   Sr  Sr14  1  0.665538  0.332804  0.960184  0  .  1
   Cr  Cr15  1  0.338803  0.676690  0.565872  0  .  1
   Cr  Cr16  1  0.336963  0.675830  0.645381  0  .  1
   Cr  Cr17  1  0.998610  0.003616  0.000071  0  .  1
   Cr  Cr18  1  0.998289  0.001620  0.210715  0  .  1
   Cr  Cr19  1  0.998342  0.002155  0.289361  0  .  1
   Cr  Cr20  1  0.998694  0.005355  0.499926  0  .  1
   Cr  Cr21  1  0.000107  0.004678  0.710663  0  .  1
   Cr  Cr22  1  -0.000866  0.003846  0.789395  0  .  1
   Cr  Cr23  1  0.336391  0.675253  0.854431  0  .  1
   Cr  Cr24  1  0.339388  0.676342  0.933928  0  .  1
   Cr  Cr25  1  0.660362  0.334800  0.066003  0  .  1
   Cr  Cr26  1  0.662652  0.335285  0.145591  0  .  1
   Cr  Cr27  1  0.663253  0.338253  0.354611  0  .  1
   Cr  Cr28  1  0.661688  0.339047  0.434130  0  .  1
   O  O29  1  0.153042  0.847258  0.250027  0  .  1
   O  O30  1  0.163698  0.827150  0.677340  0  .  1
   O  O31  1  0.163667  0.824673  0.822611  0  .  1
   O  O32  1  0.160289  0.827299  0.534428  0  .  1
   O  O33  1  0.163429  0.830344  0.965476  0  .  1
   O  O34  1  0.030297  0.513924  0.606200  0  .  1
   O  O35  1  0.029510  0.513720  0.893869  0  .  1
   O  O36  1  0.166323  0.326652  0.821527  0  .  1
   O  O37  1  0.156818  0.308100  0.250200  0  .  1
   O  O38  1  0.159078  0.316934  0.534354  0  .  1
   O  O39  1  0.492627  0.984951  0.605702  0  .  1
   O  O40  1  0.492008  0.984707  0.893971  0  .  1
   O  O41  1  0.160743  0.319152  0.965733  0  .  1
   O  O42  1  0.166242  0.328163  0.678598  0  .  1
   O  O43  1  0.484310  0.515135  0.605911  0  .  1
   O  O44  1  0.484364  0.515238  0.893953  0  .  1
   O  O45  1  0.306215  0.151190  0.750277  0  .  1
   O  O46  1  0.661100  0.824297  0.534466  0  .  1
   O  O47  1  0.663163  0.826901  0.965325  0  .  1
   O  O48  1  0.335798  0.162838  0.177581  0  .  1
   O  O49  1  0.336282  0.163195  0.322688  0  .  1
   O  O50  1  0.665514  0.827162  0.677375  0  .  1
   O  O51  1  0.664915  0.825209  0.822085  0  .  1
   O  O52  1  0.334806  0.164392  0.034747  0  .  1
   O  O53  1  0.337615  0.162408  0.465388  0  .  1
   O  O54  1  0.692072  0.843964  0.250017  0  .  1
   O  O55  1  0.509962  0.490297  0.105562  0  .  1
   O  O56  1  0.509046  0.492553  0.394489  0  .  1
   O  O57  1  0.848355  0.695145  0.749848  0  .  1
   O  O58  1  0.837992  0.671157  0.034048  0  .  1
   O  O59  1  0.837938  0.667382  0.465794  0  .  1
   O  O60  1  0.515040  0.027804  0.106632  0  .  1
   O  O61  1  0.516563  0.030852  0.393694  0  .  1
   O  O62  1  0.837096  0.663914  0.177393  0  .  1
   O  O63  1  0.837809  0.664803  0.322529  0  .  1
   O  O64  1  0.971115  0.484312  0.106205  0  .  1
   O  O65  1  0.971288  0.485927  0.393832  0  .  1
   O  O66  1  0.834501  0.162679  0.034009  0  .  1
   O  O67  1  0.837455  0.158805  0.465998  0  .  1
   O  O68  1  0.836888  0.164437  0.178861  0  .  1
   O  O69  1  0.837152  0.164708  0.321389  0  .  1
   O  O70  1  0.844008  0.154258  0.749689  0  .  1
 
