#\#CIF1.1
##########################################################################
#               Crystallographic Information Format file 
#               Produced by PyCifRW module
# 
#  This is a CIF file.  CIF has been adopted by the International
#  Union of Crystallography as the standard for data archiving and 
#  transmission.
#
#  For information on this file format, follow the CIF links at
#  http://www.iucr.org
##########################################################################

data_SrCr10O15
_symmetry_space_group_name_H-M          'P 1'
_cell_length_a                          7.83858554361
_cell_length_b                          7.838585541
_cell_length_c                          9.54359805
_cell_angle_alpha                       90.0
_cell_angle_beta                        90.0
_cell_angle_gamma                       96.2724107647
_chemical_name_systematic               'Generated by pymatgen'
_symmetry_Int_Tables_number             1
_chemical_formula_structural            SrCr10O15
_chemical_formula_sum                   'Sr2 Cr20 O30'
_cell_volume                            582.881008546
_cell_formula_units_Z                   2
loop_
  _symmetry_equiv_pos_site_id
  _symmetry_equiv_pos_as_xyz
   1  'x, y, z'
 
loop_
  _atom_site_type_symbol
  _atom_site_label
  _atom_site_symmetry_multiplicity
  _atom_site_fract_x
  _atom_site_fract_y
  _atom_site_fract_z
  _atom_site_attached_hydrogens
  _atom_site_B_iso_or_equiv
  _atom_site_occupancy
   O  O1  1  0.000000  0.000000  0.500000  0  .  1
   O  O2  1  0.500000  0.500000  0.000000  0  .  1
   O  O3  1  0.245800  0.754200  0.500000  0  .  1
   O  O4  1  0.254200  0.745800  0.000000  0  .  1
   O  O5  1  0.754200  0.245800  0.500000  0  .  1
   O  O6  1  0.745800  0.254200  0.000000  0  .  1
   O  O7  1  0.638381  0.638381  0.730871  0  .  1
   O  O8  1  0.861619  0.861619  0.230871  0  .  1
   O  O9  1  0.138381  0.138381  0.769129  0  .  1
   O  O10  1  0.361619  0.361619  0.269129  0  .  1
   O  O11  1  0.564925  0.064925  0.250000  0  .  1
   O  O12  1  0.935075  0.435075  0.750000  0  .  1
   O  O13  1  0.435075  0.935075  0.750000  0  .  1
   O  O14  1  0.064925  0.564925  0.250000  0  .  1
   O  O15  1  0.723025  0.460741  0.241533  0  .  1
   O  O16  1  0.776975  0.039259  0.741533  0  .  1
   O  O17  1  0.960741  0.223025  0.258467  0  .  1
   O  O18  1  0.539259  0.276975  0.758467  0  .  1
   O  O19  1  0.276975  0.539259  0.758467  0  .  1
   O  O20  1  0.223025  0.960741  0.258467  0  .  1
   O  O21  1  0.039259  0.776975  0.741533  0  .  1
   O  O22  1  0.460741  0.723025  0.241533  0  .  1
   O  O23  1  0.103881  0.363178  0.507064  0  .  1
   O  O24  1  0.396119  0.136822  0.007064  0  .  1
   O  O25  1  0.863178  0.603881  0.992936  0  .  1
   O  O26  1  0.636822  0.896119  0.492936  0  .  1
   O  O27  1  0.896119  0.636822  0.492936  0  .  1
   O  O28  1  0.603881  0.863178  0.992936  0  .  1
   O  O29  1  0.136822  0.396119  0.007064  0  .  1
   O  O30  1  0.363178  0.103881  0.507064  0  .  1
   Cr  Cr31  1  0.814853  0.814853  0.634121  0  .  1
   Cr  Cr32  1  0.685147  0.685147  0.134121  0  .  1
   Cr  Cr33  1  0.314853  0.314853  0.865879  0  .  1
   Cr  Cr34  1  0.185147  0.185147  0.365879  0  .  1
   Cr  Cr35  1  0.044099  0.790082  0.354450  0  .  1
   Cr  Cr36  1  0.455901  0.709918  0.854450  0  .  1
   Cr  Cr37  1  0.290082  0.544099  0.145550  0  .  1
   Cr  Cr38  1  0.209918  0.955901  0.645550  0  .  1
   Cr  Cr39  1  0.955901  0.209918  0.645550  0  .  1
   Cr  Cr40  1  0.544099  0.290082  0.145550  0  .  1
   Cr  Cr41  1  0.709918  0.455901  0.854450  0  .  1
   Cr  Cr42  1  0.790082  0.044099  0.354450  0  .  1
   Cr  Cr43  1  0.406272  0.918777  0.114130  0  .  1
   Cr  Cr44  1  0.093728  0.581223  0.614130  0  .  1
   Cr  Cr45  1  0.418777  0.906272  0.385870  0  .  1
   Cr  Cr46  1  0.081223  0.593728  0.885870  0  .  1
   Cr  Cr47  1  0.593728  0.081223  0.885870  0  .  1
   Cr  Cr48  1  0.906272  0.418777  0.385870  0  .  1
   Cr  Cr49  1  0.581223  0.093728  0.614130  0  .  1
   Cr  Cr50  1  0.918777  0.406272  0.114130  0  .  1
   Sr  Sr51  1  0.500000  0.500000  0.500000  0  .  1
   Sr  Sr52  1  0.000000  0.000000  0.000000  0  .  1
 
