#\#CIF1.1
##########################################################################
#               Crystallographic Information Format file 
#               Produced by PyCifRW module
# 
#  This is a CIF file.  CIF has been adopted by the International
#  Union of Crystallography as the standard for data archiving and 
#  transmission.
#
#  For information on this file format, follow the CIF links at
#  http://www.iucr.org
##########################################################################

data_SrCr2O4
_symmetry_space_group_name_H-M          'P 1'
_cell_length_a                          5.2347736
_cell_length_b                          6.03454243
_cell_length_c                          11.70467294
_cell_angle_alpha                       90.0
_cell_angle_beta                        90.0
_cell_angle_gamma                       90.0
_chemical_name_systematic               'Generated by pymatgen'
_symmetry_Int_Tables_number             1
_chemical_formula_structural            SrCr2O4
_chemical_formula_sum                   'Sr4 Cr8 O16'
_cell_volume                            369.744337455
_cell_formula_units_Z                   4
loop_
  _symmetry_equiv_pos_site_id
  _symmetry_equiv_pos_as_xyz
   1  'x, y, z'
 
loop_
  _atom_site_type_symbol
  _atom_site_label
  _atom_site_symmetry_multiplicity
  _atom_site_fract_x
  _atom_site_fract_y
  _atom_site_fract_z
  _atom_site_attached_hydrogens
  _atom_site_B_iso_or_equiv
  _atom_site_occupancy
   Sr  Sr1  1  0.860567  0.250000  0.750000  0  .  1
   Sr  Sr2  1  0.139433  0.750000  0.250000  0  .  1
   Sr  Sr3  1  0.544116  0.250000  0.250000  0  .  1
   Sr  Sr4  1  0.455884  0.750000  0.750000  0  .  1
   Cr  Cr5  1  0.503774  0.750000  0.492629  0  .  1
   Cr  Cr6  1  0.503774  0.750000  0.007371  0  .  1
   Cr  Cr7  1  0.496226  0.250000  0.507371  0  .  1
   Cr  Cr8  1  0.496226  0.250000  0.992629  0  .  1
   Cr  Cr9  1  0.000000  0.500000  0.500000  0  .  1
   Cr  Cr10  1  0.000000  0.000000  0.000000  0  .  1
   Cr  Cr11  1  0.000000  0.000000  0.500000  0  .  1
   Cr  Cr12  1  0.000000  0.500000  0.000000  0  .  1
   O  O13  1  0.836981  0.750000  0.408758  0  .  1
   O  O14  1  0.836981  0.750000  0.091242  0  .  1
   O  O15  1  0.163019  0.250000  0.591242  0  .  1
   O  O16  1  0.163019  0.250000  0.908758  0  .  1
   O  O17  1  0.173697  0.750000  0.584612  0  .  1
   O  O18  1  0.173697  0.750000  0.915388  0  .  1
   O  O19  1  0.826303  0.250000  0.415388  0  .  1
   O  O20  1  0.826303  0.250000  0.084612  0  .  1
   O  O21  1  0.664971  0.502964  0.594367  0  .  1
   O  O22  1  0.664971  0.997036  0.905633  0  .  1
   O  O23  1  0.335029  0.002964  0.405633  0  .  1
   O  O24  1  0.335029  0.497036  0.094367  0  .  1
   O  O25  1  0.335029  0.497036  0.405633  0  .  1
   O  O26  1  0.335029  0.002964  0.094367  0  .  1
   O  O27  1  0.664971  0.997036  0.594367  0  .  1
   O  O28  1  0.664971  0.502964  0.905633  0  .  1
 
