#\#CIF1.1
##########################################################################
#               Crystallographic Information Format file 
#               Produced by PyCifRW module
# 
#  This is a CIF file.  CIF has been adopted by the International
#  Union of Crystallography as the standard for data archiving and 
#  transmission.
#
#  For information on this file format, follow the CIF links at
#  http://www.iucr.org
##########################################################################

data_SrIn4
_symmetry_space_group_name_H-M          'P 1'
_cell_length_a                          4.95718021081
_cell_length_b                          4.95718021587
_cell_length_c                          7.09360830679
_cell_angle_alpha                       110.451339475
_cell_angle_beta                        110.45133946
_cell_angle_gamma                       90.0000000644
_chemical_name_systematic               'Generated by pymatgen'
_symmetry_Int_Tables_number             1
_chemical_formula_structural            SrIn4
_chemical_formula_sum                   'Sr1 In4'
_cell_volume                            151.546750711
_cell_formula_units_Z                   1
loop_
  _symmetry_equiv_pos_site_id
  _symmetry_equiv_pos_as_xyz
   1  'x, y, z'
 
loop_
  _atom_site_type_symbol
  _atom_site_label
  _atom_site_symmetry_multiplicity
  _atom_site_fract_x
  _atom_site_fract_y
  _atom_site_fract_z
  _atom_site_attached_hydrogens
  _atom_site_B_iso_or_equiv
  _atom_site_occupancy
   Sr  Sr1  1  0.000000  0.000000  0.000000  0  .  1
   In  In2  1  0.750000  0.250000  0.500000  0  .  1
   In  In3  1  0.250000  0.750000  0.500000  0  .  1
   In  In4  1  0.385852  0.385852  0.771704  0  .  1
   In  In5  1  0.614148  0.614148  0.228296  0  .  1
 
