#\#CIF1.1
##########################################################################
#               Crystallographic Information Format file 
#               Produced by PyCifRW module
# 
#  This is a CIF file.  CIF has been adopted by the International
#  Union of Crystallography as the standard for data archiving and 
#  transmission.
#
#  For information on this file format, follow the CIF links at
#  http://www.iucr.org
##########################################################################

data_SrNiO2
_symmetry_space_group_name_H-M          'P 1'
_cell_length_a                          3.59674757925
_cell_length_b                          4.05979468
_cell_length_c                          8.36375359199
_cell_angle_alpha                       90.0
_cell_angle_beta                        102.416697103
_cell_angle_gamma                       90.0
_chemical_name_systematic               'Generated by pymatgen'
_symmetry_Int_Tables_number             1
_chemical_formula_structural            SrNiO2
_chemical_formula_sum                   'Sr2 Ni2 O4'
_cell_volume                            119.271388387
_cell_formula_units_Z                   2
loop_
  _symmetry_equiv_pos_site_id
  _symmetry_equiv_pos_as_xyz
   1  'x, y, z'
 
loop_
  _atom_site_type_symbol
  _atom_site_label
  _atom_site_symmetry_multiplicity
  _atom_site_fract_x
  _atom_site_fract_y
  _atom_site_fract_z
  _atom_site_attached_hydrogens
  _atom_site_B_iso_or_equiv
  _atom_site_occupancy
   O  O1  1  0.179489  0.750000  0.358978  0  .  1
   O  O2  1  0.820511  0.249999  0.641022  0  .  1
   O  O3  1  0.943783  0.750000  0.887569  0  .  1
   O  O4  1  0.056214  0.249999  0.112432  0  .  1
   Ni  Ni5  1  0.061367  0.750000  0.122737  0  .  1
   Ni  Ni6  1  0.938633  0.249999  0.877264  0  .  1
   Sr  Sr7  1  0.331518  0.750000  0.663037  0  .  1
   Sr  Sr8  1  0.668482  0.249999  0.336964  0  .  1
 
