#\#CIF1.1
##########################################################################
#               Crystallographic Information Format file 
#               Produced by PyCifRW module
# 
#  This is a CIF file.  CIF has been adopted by the International
#  Union of Crystallography as the standard for data archiving and 
#  transmission.
#
#  For information on this file format, follow the CIF links at
#  http://www.iucr.org
##########################################################################

data_SrTiN2
_symmetry_space_group_name_H-M          'P 1'
_cell_length_a                          3.90162225
_cell_length_b                          3.90162225
_cell_length_c                          7.76092199
_cell_angle_alpha                       90.0
_cell_angle_beta                        90.0
_cell_angle_gamma                       90.0
_chemical_name_systematic               'Generated by pymatgen'
_symmetry_Int_Tables_number             1
_chemical_formula_structural            SrTiN2
_chemical_formula_sum                   'Sr2 Ti2 N4'
_cell_volume                            118.141847107
_cell_formula_units_Z                   2
loop_
  _symmetry_equiv_pos_site_id
  _symmetry_equiv_pos_as_xyz
   1  'x, y, z'
 
loop_
  _atom_site_type_symbol
  _atom_site_label
  _atom_site_symmetry_multiplicity
  _atom_site_fract_x
  _atom_site_fract_y
  _atom_site_fract_z
  _atom_site_attached_hydrogens
  _atom_site_B_iso_or_equiv
  _atom_site_occupancy
   N  N1  1  0.750000  0.750000  0.823626  0  .  1
   N  N2  1  0.250000  0.250000  0.176374  0  .  1
   N  N3  1  0.750000  0.250000  0.500000  0  .  1
   N  N4  1  0.250000  0.750000  0.500000  0  .  1
   Ti  Ti5  1  0.250000  0.250000  0.413627  0  .  1
   Ti  Ti6  1  0.750000  0.750000  0.586373  0  .  1
   Sr  Sr7  1  0.750000  0.750000  0.161585  0  .  1
   Sr  Sr8  1  0.250000  0.250000  0.838415  0  .  1
 
