#\#CIF1.1
##########################################################################
#               Crystallographic Information Format file 
#               Produced by PyCifRW module
# 
#  This is a CIF file.  CIF has been adopted by the International
#  Union of Crystallography as the standard for data archiving and 
#  transmission.
#
#  For information on this file format, follow the CIF links at
#  http://www.iucr.org
##########################################################################

data_SrV10O15
_symmetry_space_group_name_H-M          'P 1'
_cell_length_a                          7.89121338195
_cell_length_b                          7.89121337375
_cell_length_c                          9.57821477
_cell_angle_alpha                       90.0
_cell_angle_beta                        90.0
_cell_angle_gamma                       96.4435729333
_chemical_name_systematic               'Generated by pymatgen'
_symmetry_Int_Tables_number             1
_chemical_formula_structural            SrV10O15
_chemical_formula_sum                   'Sr2 V20 O30'
_cell_volume                            592.679551556
_cell_formula_units_Z                   2
loop_
  _symmetry_equiv_pos_site_id
  _symmetry_equiv_pos_as_xyz
   1  'x, y, z'
 
loop_
  _atom_site_type_symbol
  _atom_site_label
  _atom_site_symmetry_multiplicity
  _atom_site_fract_x
  _atom_site_fract_y
  _atom_site_fract_z
  _atom_site_attached_hydrogens
  _atom_site_B_iso_or_equiv
  _atom_site_occupancy
   O  O1  1  0.000000  0.000000  0.500000  0  .  1
   O  O2  1  0.500000  0.500000  0.000000  0  .  1
   O  O3  1  0.240714  0.759285  0.500000  0  .  1
   O  O4  1  0.259286  0.740714  0.000000  0  .  1
   O  O5  1  0.759286  0.240714  0.500000  0  .  1
   O  O6  1  0.740714  0.259286  0.000000  0  .  1
   O  O7  1  0.647327  0.647327  0.733733  0  .  1
   O  O8  1  0.852673  0.852673  0.233733  0  .  1
   O  O9  1  0.147327  0.147326  0.766267  0  .  1
   O  O10  1  0.352673  0.352673  0.266267  0  .  1
   O  O11  1  0.572295  0.072295  0.250000  0  .  1
   O  O12  1  0.927704  0.427705  0.750000  0  .  1
   O  O13  1  0.427705  0.927704  0.750000  0  .  1
   O  O14  1  0.072295  0.572295  0.250000  0  .  1
   O  O15  1  0.712389  0.465532  0.243415  0  .  1
   O  O16  1  0.787610  0.034468  0.743415  0  .  1
   O  O17  1  0.965532  0.212390  0.256585  0  .  1
   O  O18  1  0.534468  0.287610  0.756585  0  .  1
   O  O19  1  0.287610  0.534468  0.756585  0  .  1
   O  O20  1  0.212390  0.965532  0.256585  0  .  1
   O  O21  1  0.034468  0.787611  0.743415  0  .  1
   O  O22  1  0.465532  0.712390  0.243415  0  .  1
   O  O23  1  0.109569  0.358641  0.507015  0  .  1
   O  O24  1  0.390430  0.141358  0.007014  0  .  1
   O  O25  1  0.858642  0.609569  0.992985  0  .  1
   O  O26  1  0.641358  0.890431  0.492986  0  .  1
   O  O27  1  0.358642  0.109570  0.507015  0  .  1
   O  O28  1  0.609569  0.858642  0.992985  0  .  1
   O  O29  1  0.141358  0.390430  0.007014  0  .  1
   O  O30  1  0.890430  0.641358  0.492986  0  .  1
   V  V31  1  0.819050  0.819051  0.630307  0  .  1
   V  V32  1  0.680949  0.680949  0.130307  0  .  1
   V  V33  1  0.319050  0.319050  0.869693  0  .  1
   V  V34  1  0.180949  0.180950  0.369694  0  .  1
   V  V35  1  0.041780  0.790678  0.353909  0  .  1
   V  V36  1  0.458220  0.709322  0.853909  0  .  1
   V  V37  1  0.290678  0.541781  0.146091  0  .  1
   V  V38  1  0.209322  0.958219  0.646092  0  .  1
   V  V39  1  0.958219  0.209323  0.646092  0  .  1
   V  V40  1  0.541781  0.290677  0.146091  0  .  1
   V  V41  1  0.709323  0.458219  0.853909  0  .  1
   V  V42  1  0.918989  0.407062  0.118785  0  .  1
   V  V43  1  0.407063  0.918988  0.118785  0  .  1
   V  V44  1  0.092938  0.581012  0.618785  0  .  1
   V  V45  1  0.418988  0.907062  0.381215  0  .  1
   V  V46  1  0.081012  0.592937  0.881216  0  .  1
   V  V47  1  0.592937  0.081011  0.881216  0  .  1
   V  V48  1  0.907062  0.418989  0.381215  0  .  1
   V  V49  1  0.581012  0.092938  0.618785  0  .  1
   V  V50  1  0.790678  0.041781  0.353909  0  .  1
   Sr  Sr51  1  0.500000  0.500000  0.500000  0  .  1
   Sr  Sr52  1  0.000000  0.000000  0.000000  0  .  1
 
