#\#CIF1.1
##########################################################################
#               Crystallographic Information Format file 
#               Produced by PyCifRW module
# 
#  This is a CIF file.  CIF has been adopted by the International
#  Union of Crystallography as the standard for data archiving and 
#  transmission.
#
#  For information on this file format, follow the CIF links at
#  http://www.iucr.org
##########################################################################

data_SrV2CuO7
_symmetry_space_group_name_H-M          'P 1'
_cell_length_a                          5.53644134
_cell_length_b                          7.51269921
_cell_length_c                          14.72193816
_cell_angle_alpha                       90.0
_cell_angle_beta                        90.0
_cell_angle_gamma                       90.0
_chemical_name_systematic               'Generated by pymatgen'
_symmetry_Int_Tables_number             1
_chemical_formula_structural            SrV2CuO7
_chemical_formula_sum                   'Sr4 V8 Cu4 O28'
_cell_volume                            612.338679131
_cell_formula_units_Z                   4
loop_
  _symmetry_equiv_pos_site_id
  _symmetry_equiv_pos_as_xyz
   1  'x, y, z'
 
loop_
  _atom_site_type_symbol
  _atom_site_label
  _atom_site_symmetry_multiplicity
  _atom_site_fract_x
  _atom_site_fract_y
  _atom_site_fract_z
  _atom_site_attached_hydrogens
  _atom_site_B_iso_or_equiv
  _atom_site_occupancy
   O  O1  1  0.249999  0.426802  0.994415  0  .  1
   O  O2  1  0.750000  0.573198  0.005584  0  .  1
   O  O3  1  0.750000  0.926803  0.505584  0  .  1
   O  O4  1  0.249999  0.073198  0.494415  0  .  1
   O  O5  1  0.249999  0.117014  0.869801  0  .  1
   O  O6  1  0.750000  0.882986  0.130199  0  .  1
   O  O7  1  0.750000  0.617015  0.630199  0  .  1
   O  O8  1  0.249999  0.382986  0.369801  0  .  1
   O  O9  1  0.003006  0.563706  0.172049  0  .  1
   O  O10  1  0.503005  0.436294  0.827951  0  .  1
   O  O11  1  0.996995  0.063706  0.327951  0  .  1
   O  O12  1  0.496994  0.936294  0.672049  0  .  1
   O  O13  1  0.996995  0.436294  0.827951  0  .  1
   O  O14  1  0.496994  0.563706  0.172049  0  .  1
   O  O15  1  0.003006  0.936294  0.672049  0  .  1
   O  O16  1  0.503005  0.063706  0.327951  0  .  1
   O  O17  1  0.502525  0.704605  0.358007  0  .  1
   O  O18  1  0.002525  0.295395  0.641993  0  .  1
   O  O19  1  0.497476  0.204605  0.141993  0  .  1
   O  O20  1  0.997475  0.795395  0.858007  0  .  1
   O  O21  1  0.497476  0.295395  0.641993  0  .  1
   O  O22  1  0.997475  0.704605  0.358007  0  .  1
   O  O23  1  0.249999  0.865198  0.025087  0  .  1
   O  O24  1  0.002525  0.204605  0.141993  0  .  1
   O  O25  1  0.249999  0.634802  0.525087  0  .  1
   O  O26  1  0.750000  0.365198  0.474914  0  .  1
   O  O27  1  0.750000  0.134802  0.974913  0  .  1
   O  O28  1  0.502525  0.795395  0.858007  0  .  1
   V  V29  1  0.249999  0.357465  0.888314  0  .  1
   V  V30  1  0.750000  0.642535  0.111686  0  .  1
   V  V31  1  0.750000  0.857464  0.611686  0  .  1
   V  V32  1  0.249999  0.142535  0.388314  0  .  1
   V  V33  1  0.249999  0.885475  0.911312  0  .  1
   V  V34  1  0.249999  0.614524  0.411312  0  .  1
   V  V35  1  0.750000  0.385475  0.588688  0  .  1
   V  V36  1  0.750000  0.114525  0.088688  0  .  1
   Cu  Cu37  1  0.249999  0.388780  0.136569  0  .  1
   Cu  Cu38  1  0.750000  0.888780  0.363431  0  .  1
   Cu  Cu39  1  0.750000  0.611219  0.863430  0  .  1
   Cu  Cu40  1  0.249999  0.111219  0.636570  0  .  1
   Sr  Sr41  1  0.249999  0.616259  0.698766  0  .  1
   Sr  Sr42  1  0.750000  0.383741  0.301233  0  .  1
   Sr  Sr43  1  0.750000  0.116259  0.801234  0  .  1
   Sr  Sr44  1  0.249999  0.883741  0.198767  0  .  1
 
