#\#CIF1.1
##########################################################################
#               Crystallographic Information Format file 
#               Produced by PyCifRW module
# 
#  This is a CIF file.  CIF has been adopted by the International
#  Union of Crystallography as the standard for data archiving and 
#  transmission.
#
#  For information on this file format, follow the CIF links at
#  http://www.iucr.org
##########################################################################

data_Tb(GePd)2
_symmetry_space_group_name_H-M          'P 1'
_cell_length_a                          4.27632494807
_cell_length_b                          4.27632495488
_cell_length_c                          5.93810474317
_cell_angle_alpha                       111.10479599
_cell_angle_beta                        111.104796065
_cell_angle_gamma                       90.0000000206
_chemical_name_systematic               'Generated by pymatgen'
_symmetry_Int_Tables_number             1
_chemical_formula_structural            Tb(GePd)2
_chemical_formula_sum                   'Tb1 Ge2 Pd2'
_cell_volume                            93.4561998679
_cell_formula_units_Z                   1
loop_
  _symmetry_equiv_pos_site_id
  _symmetry_equiv_pos_as_xyz
   1  'x, y, z'
 
loop_
  _atom_site_type_symbol
  _atom_site_label
  _atom_site_symmetry_multiplicity
  _atom_site_fract_x
  _atom_site_fract_y
  _atom_site_fract_z
  _atom_site_attached_hydrogens
  _atom_site_B_iso_or_equiv
  _atom_site_occupancy
   Ge  Ge1  1  0.619573  0.619573  0.239146  0  .  1
   Ge  Ge2  1  0.380427  0.380427  0.760854  0  .  1
   Pd  Pd3  1  0.250000  0.750000  0.500000  0  .  1
   Pd  Pd4  1  0.750000  0.250000  0.500000  0  .  1
   Tb  Tb5  1  0.000000  0.000000  0.000000  0  .  1
 
