#\#CIF1.1
##########################################################################
#               Crystallographic Information Format file 
#               Produced by PyCifRW module
# 
#  This is a CIF file.  CIF has been adopted by the International
#  Union of Crystallography as the standard for data archiving and 
#  transmission.
#
#  For information on this file format, follow the CIF links at
#  http://www.iucr.org
##########################################################################

data_Th(GeRu)2
_symmetry_space_group_name_H-M          'P 1'
_cell_length_a                          4.30485487047
_cell_length_b                          4.31048797158
_cell_length_c                          5.85761603677
_cell_angle_alpha                       111.65154777
_cell_angle_beta                        111.553334312
_cell_angle_gamma                       89.9226479533
_chemical_name_systematic               'Generated by pymatgen'
_symmetry_Int_Tables_number             1
_chemical_formula_structural            Th(GeRu)2
_chemical_formula_sum                   'Th1 Ge2 Ru2'
_cell_volume                            92.822024107
_cell_formula_units_Z                   1
loop_
  _symmetry_equiv_pos_site_id
  _symmetry_equiv_pos_as_xyz
   1  'x, y, z'
 
loop_
  _atom_site_type_symbol
  _atom_site_label
  _atom_site_symmetry_multiplicity
  _atom_site_fract_x
  _atom_site_fract_y
  _atom_site_fract_z
  _atom_site_attached_hydrogens
  _atom_site_B_iso_or_equiv
  _atom_site_occupancy
   Th  Th1  1  0.004189  0.001898  0.999846  0  .  1
   Ge  Ge2  1  0.371148  0.372633  0.738904  0  .  1
   Ge  Ge3  1  0.631112  0.627914  0.260743  0  .  1
   Ru  Ru4  1  0.750862  0.247915  0.499212  0  .  1
   Ru  Ru5  1  0.250463  0.752147  0.500407  0  .  1
 
