#\#CIF1.1
##########################################################################
#               Crystallographic Information Format file 
#               Produced by PyCifRW module
# 
#  This is a CIF file.  CIF has been adopted by the International
#  Union of Crystallography as the standard for data archiving and 
#  transmission.
#
#  For information on this file format, follow the CIF links at
#  http://www.iucr.org
##########################################################################

data_Ti11BeO20
_symmetry_space_group_name_H-M          'P 1'
_cell_length_a                          7.21625321883
_cell_length_b                          7.73456942097
_cell_length_c                          13.1385304927
_cell_angle_alpha                       90.2117760445
_cell_angle_beta                        93.1915212596
_cell_angle_gamma                       104.802585464
_chemical_name_systematic               'Generated by pymatgen'
_symmetry_Int_Tables_number             1
_chemical_formula_structural            Ti11BeO20
_chemical_formula_sum                   'Ti22 Be2 O40'
_cell_volume                            707.762768755
_cell_formula_units_Z                   2
loop_
  _symmetry_equiv_pos_site_id
  _symmetry_equiv_pos_as_xyz
   1  'x, y, z'
 
loop_
  _atom_site_type_symbol
  _atom_site_label
  _atom_site_symmetry_multiplicity
  _atom_site_fract_x
  _atom_site_fract_y
  _atom_site_fract_z
  _atom_site_attached_hydrogens
  _atom_site_B_iso_or_equiv
  _atom_site_occupancy
   Ti  Ti1  1  0.012205  0.921486  0.202412  0  .  1
   Ti  Ti2  1  0.036105  0.434404  0.710308  0  .  1
   Ti  Ti3  1  0.995676  0.296193  0.125969  0  .  1
   Ti  Ti4  1  0.997672  0.205641  0.367924  0  .  1
   Ti  Ti5  1  0.319776  0.946483  0.423779  0  .  1
   Ti  Ti6  1  0.315472  0.709496  0.079690  0  .  1
   Ti  Ti7  1  0.321307  0.570707  0.515007  0  .  1
   Ti  Ti8  1  0.334096  0.433178  0.929836  0  .  1
   Ti  Ti9  1  0.354449  0.629011  0.285726  0  .  1
   Ti  Ti10  1  0.302110  0.206252  0.584686  0  .  1
   Ti  Ti11  1  0.319504  0.085622  0.012779  0  .  1
   Ti  Ti12  1  0.680496  0.914378  0.987221  0  .  1
   Ti  Ti13  1  0.697890  0.793748  0.415314  0  .  1
   Ti  Ti14  1  0.645551  0.370989  0.714274  0  .  1
   Ti  Ti15  1  0.665904  0.566822  0.070164  0  .  1
   Ti  Ti16  1  0.678693  0.429294  0.484993  0  .  1
   Ti  Ti17  1  0.684528  0.290504  0.920310  0  .  1
   Ti  Ti18  1  0.680224  0.053517  0.576221  0  .  1
   Ti  Ti19  1  0.002328  0.794359  0.632076  0  .  1
   Ti  Ti20  1  0.004324  0.703807  0.874031  0  .  1
   Ti  Ti21  1  0.963895  0.565596  0.289692  0  .  1
   Ti  Ti22  1  0.987795  0.078514  0.797588  0  .  1
   Be  Be23  1  0.382735  0.006864  0.783456  0  .  1
   Be  Be24  1  0.617265  0.993136  0.216544  0  .  1
   O  O25  1  0.160145  0.900678  0.768468  0  .  1
   O  O26  1  0.174903  0.827784  0.981072  0  .  1
   O  O27  1  0.171340  0.954026  0.545165  0  .  1
   O  O28  1  0.163148  0.739521  0.200654  0  .  1
   O  O29  1  0.162181  0.540830  0.836394  0  .  1
   O  O30  1  0.167401  0.617003  0.620276  0  .  1
   O  O31  1  0.190063  0.681591  0.401108  0  .  1
   O  O32  1  0.135304  0.395366  0.266574  0  .  1
   O  O33  1  0.154952  0.239519  0.696359  0  .  1
   O  O34  1  0.175392  0.175622  0.905203  0  .  1
   O  O35  1  0.172092  0.325518  0.477929  0  .  1
   O  O36  1  0.169462  0.460397  0.047860  0  .  1
   O  O37  1  0.158754  0.042378  0.333809  0  .  1
   O  O38  1  0.154939  0.114009  0.121162  0  .  1
   O  O39  1  0.501062  0.961013  0.106585  0  .  1
   O  O40  1  0.498404  0.679171  0.968436  0  .  1
   O  O41  1  0.510967  0.895291  0.313629  0  .  1
   O  O42  1  0.502217  0.828454  0.518226  0  .  1
   O  O43  1  0.493330  0.456225  0.602289  0  .  1
   O  O44  1  0.494963  0.605603  0.172323  0  .  1
   O  O45  1  0.505037  0.394397  0.827677  0  .  1
   O  O46  1  0.506670  0.543775  0.397711  0  .  1
   O  O47  1  0.497783  0.171546  0.481774  0  .  1
   O  O48  1  0.489033  0.104709  0.686371  0  .  1
   O  O49  1  0.501596  0.320829  0.031564  0  .  1
   O  O50  1  0.498938  0.038987  0.893415  0  .  1
   O  O51  1  0.845061  0.885991  0.878838  0  .  1
   O  O52  1  0.841246  0.957622  0.666191  0  .  1
   O  O53  1  0.830538  0.539603  0.952140  0  .  1
   O  O54  1  0.827908  0.674482  0.522071  0  .  1
   O  O55  1  0.824608  0.824378  0.094797  0  .  1
   O  O56  1  0.845048  0.760481  0.303641  0  .  1
   O  O57  1  0.864696  0.604634  0.733426  0  .  1
   O  O58  1  0.809937  0.318409  0.598892  0  .  1
   O  O59  1  0.832599  0.382997  0.379724  0  .  1
   O  O60  1  0.837820  0.459170  0.163606  0  .  1
   O  O61  1  0.836852  0.260479  0.799346  0  .  1
   O  O62  1  0.828660  0.045974  0.454835  0  .  1
   O  O63  1  0.825097  0.172216  0.018928  0  .  1
   O  O64  1  0.839855  0.099322  0.231532  0  .  1
 
