#\#CIF1.1
##########################################################################
#               Crystallographic Information Format file 
#               Produced by PyCifRW module
# 
#  This is a CIF file.  CIF has been adopted by the International
#  Union of Crystallography as the standard for data archiving and 
#  transmission.
#
#  For information on this file format, follow the CIF links at
#  http://www.iucr.org
##########################################################################

data_Ti3NiS6
_symmetry_space_group_name_H-M          'P 1'
_cell_length_a                          6.61346276457
_cell_length_b                          6.61346276793
_cell_length_c                          6.61346276835
_cell_angle_alpha                       52.6999532052
_cell_angle_beta                        52.6999532351
_cell_angle_gamma                       52.6999532203
_chemical_name_systematic               'Generated by pymatgen'
_symmetry_Int_Tables_number             1
_chemical_formula_structural            Ti3NiS6
_chemical_formula_sum                   'Ti3 Ni1 S6'
_cell_volume                            169.506142944
_cell_formula_units_Z                   1
loop_
  _symmetry_equiv_pos_site_id
  _symmetry_equiv_pos_as_xyz
   1  'x, y, z'
 
loop_
  _atom_site_type_symbol
  _atom_site_label
  _atom_site_symmetry_multiplicity
  _atom_site_fract_x
  _atom_site_fract_y
  _atom_site_fract_z
  _atom_site_attached_hydrogens
  _atom_site_B_iso_or_equiv
  _atom_site_occupancy
   S  S1  1  0.090125  0.749717  0.416008  0  .  1
   S  S2  1  0.749717  0.416008  0.090125  0  .  1
   S  S3  1  0.416008  0.090125  0.749717  0  .  1
   S  S4  1  0.909875  0.250283  0.583992  0  .  1
   S  S5  1  0.583992  0.909875  0.250283  0  .  1
   S  S6  1  0.250283  0.583992  0.909875  0  .  1
   Ti  Ti7  1  0.670541  0.670541  0.670541  0  .  1
   Ti  Ti8  1  0.329459  0.329459  0.329459  0  .  1
   Ti  Ti9  1  0.000000  0.000000  0.000000  0  .  1
   Ni  Ni10  1  0.500000  0.500000  0.500000  0  .  1
 
