#\#CIF1.1
##########################################################################
#               Crystallographic Information Format file 
#               Produced by PyCifRW module
# 
#  This is a CIF file.  CIF has been adopted by the International
#  Union of Crystallography as the standard for data archiving and 
#  transmission.
#
#  For information on this file format, follow the CIF links at
#  http://www.iucr.org
##########################################################################

data_Ti3V5O16
_symmetry_space_group_name_H-M          'P 1'
_cell_length_a                          5.90747085213
_cell_length_b                          5.9626195932
_cell_length_c                          9.02114749928
_cell_angle_alpha                       90.0165535862
_cell_angle_beta                        89.8893364381
_cell_angle_gamma                       120.303859058
_chemical_name_systematic               'Generated by pymatgen'
_symmetry_Int_Tables_number             1
_chemical_formula_structural            Ti3V5O16
_chemical_formula_sum                   'Ti3 V5 O16'
_cell_volume                            274.341961213
_cell_formula_units_Z                   1
loop_
  _symmetry_equiv_pos_site_id
  _symmetry_equiv_pos_as_xyz
   1  'x, y, z'
 
loop_
  _atom_site_type_symbol
  _atom_site_label
  _atom_site_symmetry_multiplicity
  _atom_site_fract_x
  _atom_site_fract_y
  _atom_site_fract_z
  _atom_site_attached_hydrogens
  _atom_site_B_iso_or_equiv
  _atom_site_occupancy
   Ti  Ti1  1  0.173653  0.837991  0.211999  0  .  1
   Ti  Ti2  1  0.173666  0.334990  0.211032  0  .  1
   Ti  Ti3  1  0.328149  0.163983  0.707368  0  .  1
   V  V4  1  0.336747  0.667529  0.485934  0  .  1
   V  V5  1  0.665382  0.831714  0.204834  0  .  1
   V  V6  1  0.676637  0.336883  0.985339  0  .  1
   V  V7  1  0.829996  0.166165  0.710279  0  .  1
   V  V8  1  0.829799  0.662900  0.710747  0  .  1
   O  O9  1  0.161000  0.825707  0.605736  0  .  1
   O  O10  1  0.053788  0.528339  0.345178  0  .  1
   O  O11  1  0.329566  0.666469  0.097772  0  .  1
   O  O12  1  0.002317  0.001092  0.312598  0  .  1
   O  O13  1  0.997098  0.998514  0.813622  0  .  1
   O  O14  1  0.160343  0.335063  0.605510  0  .  1
   O  O15  1  0.484481  0.951656  0.337190  0  .  1
   O  O16  1  0.480134  0.528919  0.338895  0  .  1
   O  O17  1  0.343935  0.172867  0.104351  0  .  1
   O  O18  1  0.644285  0.822547  0.603233  0  .  1
   O  O19  1  0.529192  0.478017  0.838815  0  .  1
   O  O20  1  0.529509  0.051426  0.839419  0  .  1
   O  O21  1  0.661542  0.330528  0.599521  0  .  1
   O  O22  1  0.825965  0.656001  0.104950  0  .  1
   O  O23  1  0.952992  0.476265  0.837668  0  .  1
   O  O24  1  0.829822  0.174631  0.103731  0  .  1
 
