#\#CIF1.1
##########################################################################
#               Crystallographic Information Format file 
#               Produced by PyCifRW module
# 
#  This is a CIF file.  CIF has been adopted by the International
#  Union of Crystallography as the standard for data archiving and 
#  transmission.
#
#  For information on this file format, follow the CIF links at
#  http://www.iucr.org
##########################################################################

data_Ti3VO8
_symmetry_space_group_name_H-M          'P 1'
_cell_length_a                          5.95509253151
_cell_length_b                          5.94592455623
_cell_length_c                          9.0091518433
_cell_angle_alpha                       89.5178744873
_cell_angle_beta                        90.2406928904
_cell_angle_gamma                       119.949086555
_chemical_name_systematic               'Generated by pymatgen'
_symmetry_Int_Tables_number             1
_chemical_formula_structural            Ti3VO8
_chemical_formula_sum                   'Ti6 V2 O16'
_cell_volume                            276.394662518
_cell_formula_units_Z                   2
loop_
  _symmetry_equiv_pos_site_id
  _symmetry_equiv_pos_as_xyz
   1  'x, y, z'
 
loop_
  _atom_site_type_symbol
  _atom_site_label
  _atom_site_symmetry_multiplicity
  _atom_site_fract_x
  _atom_site_fract_y
  _atom_site_fract_z
  _atom_site_attached_hydrogens
  _atom_site_B_iso_or_equiv
  _atom_site_occupancy
   Ti  Ti1  1  0.165409  0.830778  0.209305  0  .  1
   Ti  Ti2  1  0.169126  0.334743  0.208980  0  .  1
   Ti  Ti3  1  0.665686  0.829138  0.209179  0  .  1
   Ti  Ti4  1  0.334314  0.163453  0.709179  0  .  1
   Ti  Ti5  1  0.834591  0.665368  0.709305  0  .  1
   Ti  Ti6  1  0.830874  0.165618  0.708980  0  .  1
   V  V7  1  0.333481  0.665943  0.485407  0  .  1
   V  V8  1  0.666519  0.332461  0.985407  0  .  1
   O  O9  1  0.171458  0.830975  0.604525  0  .  1
   O  O10  1  0.049564  0.525100  0.339414  0  .  1
   O  O11  1  0.333335  0.667814  0.098054  0  .  1
   O  O12  1  0.999057  0.999897  0.312368  0  .  1
   O  O13  1  0.000943  0.000840  0.812368  0  .  1
   O  O14  1  0.175764  0.350066  0.604303  0  .  1
   O  O15  1  0.472648  0.947154  0.342458  0  .  1
   O  O16  1  0.475801  0.523757  0.338605  0  .  1
   O  O17  1  0.343509  0.172155  0.105260  0  .  1
   O  O18  1  0.656491  0.828646  0.605260  0  .  1
   O  O19  1  0.527352  0.474505  0.842458  0  .  1
   O  O20  1  0.524199  0.047957  0.838605  0  .  1
   O  O21  1  0.666665  0.334478  0.598054  0  .  1
   O  O22  1  0.828542  0.659518  0.104525  0  .  1
   O  O23  1  0.950436  0.475534  0.839414  0  .  1
   O  O24  1  0.824236  0.174302  0.104303  0  .  1
 
