#\#CIF1.1
##########################################################################
#               Crystallographic Information Format file 
#               Produced by PyCifRW module
# 
#  This is a CIF file.  CIF has been adopted by the International
#  Union of Crystallography as the standard for data archiving and 
#  transmission.
#
#  For information on this file format, follow the CIF links at
#  http://www.iucr.org
##########################################################################

data_TiCl3
_symmetry_space_group_name_H-M          'P 1'
_cell_length_a                          7.22446084752
_cell_length_b                          7.22446084592
_cell_length_c                          7.22446084461
_cell_angle_alpha                       50.0651144839
_cell_angle_beta                        50.0651145483
_cell_angle_gamma                       50.0651145091
_chemical_name_systematic               'Generated by pymatgen'
_symmetry_Int_Tables_number             1
_chemical_formula_structural            TiCl3
_chemical_formula_sum                   'Ti2 Cl6'
_cell_volume                            204.048163519
_cell_formula_units_Z                   2
loop_
  _symmetry_equiv_pos_site_id
  _symmetry_equiv_pos_as_xyz
   1  'x, y, z'
 
loop_
  _atom_site_type_symbol
  _atom_site_label
  _atom_site_symmetry_multiplicity
  _atom_site_fract_x
  _atom_site_fract_y
  _atom_site_fract_z
  _atom_site_attached_hydrogens
  _atom_site_B_iso_or_equiv
  _atom_site_occupancy
   Cl  Cl1  1  0.572652  0.925814  0.278420  0  .  1
   Cl  Cl2  1  0.925814  0.278420  0.572652  0  .  1
   Cl  Cl3  1  0.721580  0.427348  0.074186  0  .  1
   Cl  Cl4  1  0.074186  0.721580  0.427348  0  .  1
   Cl  Cl5  1  0.427348  0.074186  0.721580  0  .  1
   Cl  Cl6  1  0.278420  0.572652  0.925814  0  .  1
   Ti  Ti7  1  0.666572  0.666572  0.666572  0  .  1
   Ti  Ti8  1  0.333428  0.333428  0.333428  0  .  1
 
