#\#CIF1.1
##########################################################################
#               Crystallographic Information Format file 
#               Produced by PyCifRW module
# 
#  This is a CIF file.  CIF has been adopted by the International
#  Union of Crystallography as the standard for data archiving and 
#  transmission.
#
#  For information on this file format, follow the CIF links at
#  http://www.iucr.org
##########################################################################

data_TiVO3
_symmetry_space_group_name_H-M          'P 1'
_cell_length_a                          5.55205464376
_cell_length_b                          5.15066739158
_cell_length_c                          7.62171048365
_cell_angle_alpha                       90.2160324742
_cell_angle_beta                        96.027870055
_cell_angle_gamma                       89.8874546861
_chemical_name_systematic               'Generated by pymatgen'
_symmetry_Int_Tables_number             1
_chemical_formula_structural            TiVO3
_chemical_formula_sum                   'Ti4 V4 O12'
_cell_volume                            216.749523757
_cell_formula_units_Z                   4
loop_
  _symmetry_equiv_pos_site_id
  _symmetry_equiv_pos_as_xyz
   1  'x, y, z'
 
loop_
  _atom_site_type_symbol
  _atom_site_label
  _atom_site_symmetry_multiplicity
  _atom_site_fract_x
  _atom_site_fract_y
  _atom_site_fract_z
  _atom_site_attached_hydrogens
  _atom_site_B_iso_or_equiv
  _atom_site_occupancy
   Ti  Ti1  1  0.797424  0.501053  0.854610  0  .  1
   Ti  Ti2  1  0.188682  0.495913  0.650526  0  .  1
   Ti  Ti3  1  0.303850  0.999288  0.353388  0  .  1
   Ti  Ti4  1  0.204950  0.503292  0.143484  0  .  1
   V  V5  1  0.302699  0.000609  0.844913  0  .  1
   V  V6  1  0.694941  0.999708  0.650411  0  .  1
   V  V7  1  0.808142  0.498866  0.352348  0  .  1
   V  V8  1  0.698115  0.999844  0.152167  0  .  1
   O  O9  1  0.498766  0.321901  0.751241  0  .  1
   O  O10  1  0.660902  0.832563  0.896477  0  .  1
   O  O11  1  0.853178  0.656332  0.605743  0  .  1
   O  O12  1  0.992850  0.201713  0.743804  0  .  1
   O  O13  1  0.157859  0.636784  0.907061  0  .  1
   O  O14  1  0.641508  0.147124  0.407798  0  .  1
   O  O15  1  0.339370  0.837217  0.586948  0  .  1
   O  O16  1  0.849467  0.363161  0.087605  0  .  1
   O  O17  1  0.160420  0.335152  0.408017  0  .  1
   O  O18  1  0.339813  0.170440  0.103326  0  .  1
   O  O19  1  0.483727  0.691540  0.247094  0  .  1
   O  O20  1  0.023338  0.807499  0.253039  0  .  1
 
