#\#CIF1.1
##########################################################################
#               Crystallographic Information Format file 
#               Produced by PyCifRW module
# 
#  This is a CIF file.  CIF has been adopted by the International
#  Union of Crystallography as the standard for data archiving and 
#  transmission.
#
#  For information on this file format, follow the CIF links at
#  http://www.iucr.org
##########################################################################

data_Tm(CuGe)2
_symmetry_space_group_name_H-M          'P 1'
_cell_length_a                          4.1236538391
_cell_length_b                          4.12365340674
_cell_length_c                          5.82497184948
_cell_angle_alpha                       110.729920466
_cell_angle_beta                        110.729918603
_cell_angle_gamma                       90.0000046851
_chemical_name_systematic               'Generated by pymatgen'
_symmetry_Int_Tables_number             1
_chemical_formula_structural            Tm(CuGe)2
_chemical_formula_sum                   'Tm1 Cu2 Ge2'
_cell_volume                            85.747372201
_cell_formula_units_Z                   1
loop_
  _symmetry_equiv_pos_site_id
  _symmetry_equiv_pos_as_xyz
   1  'x, y, z'
 
loop_
  _atom_site_type_symbol
  _atom_site_label
  _atom_site_symmetry_multiplicity
  _atom_site_fract_x
  _atom_site_fract_y
  _atom_site_fract_z
  _atom_site_attached_hydrogens
  _atom_site_B_iso_or_equiv
  _atom_site_occupancy
   Tm  Tm1  1  0.000000  0.000000  0.000000  0  .  1
   Cu  Cu2  1  0.384464  0.384464  0.768929  0  .  1
   Cu  Cu3  1  0.615536  0.615536  0.231071  0  .  1
   Ge  Ge4  1  0.250000  0.750000  0.500000  0  .  1
   Ge  Ge5  1  0.750000  0.250000  0.500000  0  .  1
 
