#\#CIF1.1
##########################################################################
#               Crystallographic Information Format file 
#               Produced by PyCifRW module
# 
#  This is a CIF file.  CIF has been adopted by the International
#  Union of Crystallography as the standard for data archiving and 
#  transmission.
#
#  For information on this file format, follow the CIF links at
#  http://www.iucr.org
##########################################################################

data_Tm(NiGe)2
_symmetry_space_group_name_H-M          'P 1'
_cell_length_a                          4.03560198328
_cell_length_b                          4.03560198034
_cell_length_c                          5.65942848084
_cell_angle_alpha                       110.887730871
_cell_angle_beta                        110.887730832
_cell_angle_gamma                       90.0000000064
_chemical_name_systematic               'Generated by pymatgen'
_symmetry_Int_Tables_number             1
_chemical_formula_structural            Tm(NiGe)2
_chemical_formula_sum                   'Tm1 Ni2 Ge2'
_cell_volume                            79.5956212504
_cell_formula_units_Z                   1
loop_
  _symmetry_equiv_pos_site_id
  _symmetry_equiv_pos_as_xyz
   1  'x, y, z'
 
loop_
  _atom_site_type_symbol
  _atom_site_label
  _atom_site_symmetry_multiplicity
  _atom_site_fract_x
  _atom_site_fract_y
  _atom_site_fract_z
  _atom_site_attached_hydrogens
  _atom_site_B_iso_or_equiv
  _atom_site_occupancy
   Ni  Ni1  1  0.250000  0.750000  0.500000  0  .  1
   Ni  Ni2  1  0.750000  0.250000  0.500000  0  .  1
   Ge  Ge3  1  0.627223  0.627223  0.254446  0  .  1
   Ge  Ge4  1  0.372777  0.372777  0.745554  0  .  1
   Tm  Tm5  1  0.000000  0.000000  0.000000  0  .  1
 
