#\#CIF1.1
##########################################################################
#               Crystallographic Information Format file 
#               Produced by PyCifRW module
# 
#  This is a CIF file.  CIF has been adopted by the International
#  Union of Crystallography as the standard for data archiving and 
#  transmission.
#
#  For information on this file format, follow the CIF links at
#  http://www.iucr.org
##########################################################################

data_U(MnSi)2
_symmetry_space_group_name_H-M          'P 1'
_cell_length_a                          3.86603770405
_cell_length_b                          3.86603770769
_cell_length_c                          5.81129508192
_cell_angle_alpha                       109.428564936
_cell_angle_beta                        109.428564975
_cell_angle_gamma                       90.0000000226
_chemical_name_systematic               'Generated by pymatgen'
_symmetry_Int_Tables_number             1
_chemical_formula_structural            U(MnSi)2
_chemical_formula_sum                   'U1 Mn2 Si2'
_cell_volume                            76.6467514058
_cell_formula_units_Z                   1
loop_
  _symmetry_equiv_pos_site_id
  _symmetry_equiv_pos_as_xyz
   1  'x, y, z'
 
loop_
  _atom_site_type_symbol
  _atom_site_label
  _atom_site_symmetry_multiplicity
  _atom_site_fract_x
  _atom_site_fract_y
  _atom_site_fract_z
  _atom_site_attached_hydrogens
  _atom_site_B_iso_or_equiv
  _atom_site_occupancy
   Si  Si1  1  0.616029  0.616029  0.232058  0  .  1
   Si  Si2  1  0.383971  0.383971  0.767942  0  .  1
   Mn  Mn3  1  0.250000  0.750000  0.500000  0  .  1
   Mn  Mn4  1  0.750000  0.250000  0.500000  0  .  1
   U  U5  1  0.000000  0.000000  0.000000  0  .  1
 
