#\#CIF1.1
##########################################################################
#               Crystallographic Information Format file 
#               Produced by PyCifRW module
# 
#  This is a CIF file.  CIF has been adopted by the International
#  Union of Crystallography as the standard for data archiving and 
#  transmission.
#
#  For information on this file format, follow the CIF links at
#  http://www.iucr.org
##########################################################################

data_U(NiGe)2
_symmetry_space_group_name_H-M          'P 1'
_cell_length_a                          4.04882758629
_cell_length_b                          4.05457064279
_cell_length_c                          5.60882299875
_cell_angle_alpha                       111.189101158
_cell_angle_beta                        111.157554778
_cell_angle_gamma                       90.0000000085
_chemical_name_systematic               'Generated by pymatgen'
_symmetry_Int_Tables_number             1
_chemical_formula_structural            U(NiGe)2
_chemical_formula_sum                   'U1 Ni2 Ge2'
_cell_volume                            79.15756191
_cell_formula_units_Z                   1
loop_
  _symmetry_equiv_pos_site_id
  _symmetry_equiv_pos_as_xyz
   1  'x, y, z'
 
loop_
  _atom_site_type_symbol
  _atom_site_label
  _atom_site_symmetry_multiplicity
  _atom_site_fract_x
  _atom_site_fract_y
  _atom_site_fract_z
  _atom_site_attached_hydrogens
  _atom_site_B_iso_or_equiv
  _atom_site_occupancy
   Ni  Ni1  1  0.750270  0.250114  0.500539  0  .  1
   Ni  Ni2  1  0.249730  0.749886  0.499461  0  .  1
   Ge  Ge3  1  0.626171  0.626071  0.252341  0  .  1
   Ge  Ge4  1  0.373829  0.373929  0.747659  0  .  1
   U  U5  1  0.000000  0.000000  0.000000  0  .  1
 
