#\#CIF1.1
##########################################################################
#               Crystallographic Information Format file 
#               Produced by PyCifRW module
# 
#  This is a CIF file.  CIF has been adopted by the International
#  Union of Crystallography as the standard for data archiving and 
#  transmission.
#
#  For information on this file format, follow the CIF links at
#  http://www.iucr.org
##########################################################################

data_V12Cu2O29
_symmetry_space_group_name_H-M          'P 1'
_cell_length_a                          14.3652602717
_cell_length_b                          7.40004729596
_cell_length_c                          10.9710590969
_cell_angle_alpha                       70.3051403383
_cell_angle_beta                        96.9019718464
_cell_angle_gamma                       82.5158282442
_chemical_name_systematic               'Generated by pymatgen'
_symmetry_Int_Tables_number             1
_chemical_formula_structural            V12Cu2O29
_chemical_formula_sum                   'V24 Cu4 O58'
_cell_volume                            1071.73607373
_cell_formula_units_Z                   2
loop_
  _symmetry_equiv_pos_site_id
  _symmetry_equiv_pos_as_xyz
   1  'x, y, z'
 
loop_
  _atom_site_type_symbol
  _atom_site_label
  _atom_site_symmetry_multiplicity
  _atom_site_fract_x
  _atom_site_fract_y
  _atom_site_fract_z
  _atom_site_attached_hydrogens
  _atom_site_B_iso_or_equiv
  _atom_site_occupancy
   V  V1  1  0.172531  0.768975  0.876721  0  .  1
   V  V2  1  0.176686  0.265464  0.880429  0  .  1
   V  V3  1  0.124944  0.416443  0.102958  0  .  1
   V  V4  1  0.118338  0.923657  0.093940  0  .  1
   V  V5  1  0.224552  0.417216  0.554594  0  .  1
   V  V6  1  0.223952  0.915712  0.553897  0  .  1
   V  V7  1  0.292391  0.251346  0.351286  0  .  1
   V  V8  1  0.297858  0.748548  0.353037  0  .  1
   V  V9  1  0.395698  0.253855  0.792843  0  .  1
   V  V10  1  0.398827  0.751913  0.800788  0  .  1
   V  V11  1  0.352868  0.892456  0.033790  0  .  1
   V  V12  1  0.355527  0.395743  0.030576  0  .  1
   V  V13  1  0.645174  0.604120  0.970661  0  .  1
   V  V14  1  0.644141  0.103833  0.969148  0  .  1
   V  V15  1  0.607262  0.747133  0.203353  0  .  1
   V  V16  1  0.604014  0.246097  0.205298  0  .  1
   V  V17  1  0.706128  0.754460  0.649909  0  .  1
   V  V18  1  0.706143  0.243533  0.648932  0  .  1
   V  V19  1  0.775107  0.582426  0.448006  0  .  1
   V  V20  1  0.783336  0.079729  0.448286  0  .  1
   V  V21  1  0.879729  0.081184  0.901411  0  .  1
   V  V22  1  0.883231  0.575821  0.902808  0  .  1
   V  V23  1  0.821845  0.737290  0.114763  0  .  1
   V  V24  1  0.819376  0.235507  0.118342  0  .  1
   Cu  Cu25  1  0.029812  0.564960  0.350309  0  .  1
   Cu  Cu26  1  0.016436  0.067348  0.362705  0  .  1
   Cu  Cu27  1  0.516865  0.108431  0.528381  0  .  1
   Cu  Cu28  1  0.962706  0.435910  0.655921  0  .  1
   O  O29  1  0.070073  0.341051  0.784124  0  .  1
   O  O30  1  0.069527  0.838506  0.784776  0  .  1
   O  O31  1  0.998331  0.003400  0.997824  0  .  1
   O  O32  1  0.997530  0.501451  0.994415  0  .  1
   O  O33  1  0.105664  0.961457  0.516608  0  .  1
   O  O34  1  0.104585  0.469377  0.515956  0  .  1
   O  O35  1  0.104367  0.346980  0.259132  0  .  1
   O  O36  1  0.102858  0.846640  0.250807  0  .  1
   O  O37  1  0.203559  0.493993  0.926055  0  .  1
   O  O38  1  0.201222  0.982367  0.919467  0  .  1
   O  O39  1  0.140226  0.178195  0.057983  0  .  1
   O  O40  1  0.137487  0.695094  0.054689  0  .  1
   O  O41  1  0.249274  0.323914  0.730677  0  .  1
   O  O42  1  0.249897  0.819357  0.735459  0  .  1
   O  O43  1  0.253591  0.673517  0.528507  0  .  1
   O  O44  1  0.248343  0.173253  0.525972  0  .  1
   O  O45  1  0.330315  0.167427  0.984277  0  .  1
   O  O46  1  0.335954  0.674830  0.995913  0  .  1
   O  O47  1  0.263218  0.496772  0.377477  0  .  1
   O  O48  1  0.262976  0.993858  0.377516  0  .  1
   O  O49  1  0.273357  0.343317  0.174910  0  .  1
   O  O50  1  0.276536  0.845474  0.171212  0  .  1
   O  O51  1  0.388282  0.486823  0.849882  0  .  1
   O  O52  1  0.387928  0.969038  0.852774  0  .  1
   O  O53  1  0.402179  0.317368  0.635237  0  .  1
   O  O54  1  0.405127  0.836974  0.644259  0  .  1
   O  O55  1  0.411578  0.701987  0.390001  0  .  1
   O  O56  1  0.409127  0.199460  0.394625  0  .  1
   O  O57  1  0.532037  0.176835  0.877497  0  .  1
   O  O58  1  0.531483  0.681091  0.876451  0  .  1
   O  O59  1  0.463732  0.825583  0.123096  0  .  1
   O  O60  1  0.466290  0.318384  0.124246  0  .  1
   O  O61  1  0.590417  0.843201  0.608923  0  .  1
   O  O62  1  0.590548  0.254163  0.609401  0  .  1
   O  O63  1  0.598457  0.168127  0.365436  0  .  1
   O  O64  1  0.595661  0.672415  0.357815  0  .  1
   O  O65  1  0.609388  0.013269  0.151281  0  .  1
   O  O66  1  0.608870  0.531346  0.150423  0  .  1
   O  O67  1  0.726378  0.158453  0.825032  0  .  1
   O  O68  1  0.724742  0.653848  0.824963  0  .  1
   O  O69  1  0.747989  0.999134  0.627903  0  .  1
   O  O70  1  0.725336  0.511120  0.615444  0  .  1
   O  O71  1  0.666290  0.321779  0.024161  0  .  1
   O  O72  1  0.674942  0.821215  0.019227  0  .  1
   O  O73  1  0.752798  0.322258  0.475333  0  .  1
   O  O74  1  0.752974  0.826087  0.475075  0  .  1
   O  O75  1  0.753091  0.178324  0.267595  0  .  1
   O  O76  1  0.749270  0.677457  0.269375  0  .  1
   O  O77  1  0.858988  0.820070  0.935150  0  .  1
   O  O78  1  0.857500  0.312423  0.942707  0  .  1
   O  O79  1  0.796747  0.506966  0.073952  0  .  1
   O  O80  1  0.797024  0.019499  0.076109  0  .  1
   O  O81  1  0.895342  0.177995  0.746531  0  .  1
   O  O82  1  0.895419  0.626789  0.745733  0  .  1
   O  O83  1  0.899939  0.040661  0.468859  0  .  1
   O  O84  1  0.894965  0.533631  0.484109  0  .  1
   O  O85  1  0.929499  0.661033  0.212880  0  .  1
   O  O86  1  0.928788  0.163792  0.209039  0  .  1
 
