#\#CIF1.1
##########################################################################
#               Crystallographic Information Format file 
#               Produced by PyCifRW module
# 
#  This is a CIF file.  CIF has been adopted by the International
#  Union of Crystallography as the standard for data archiving and 
#  transmission.
#
#  For information on this file format, follow the CIF links at
#  http://www.iucr.org
##########################################################################

data_V12O29
_symmetry_space_group_name_H-M          'P 1'
_cell_length_a                          14.3433900708
_cell_length_b                          14.3433900708
_cell_length_c                          10.3268089705
_cell_angle_alpha                       77.7706870381
_cell_angle_beta                        102.229312962
_cell_angle_gamma                       165.295153424
_chemical_name_systematic               'Generated by pymatgen'
_symmetry_Int_Tables_number             1
_chemical_formula_structural            V12O29
_chemical_formula_sum                   'V12 O29'
_cell_volume                            526.854636034
_cell_formula_units_Z                   1
loop_
  _symmetry_equiv_pos_site_id
  _symmetry_equiv_pos_as_xyz
   1  'x, y, z'
 
loop_
  _atom_site_type_symbol
  _atom_site_label
  _atom_site_symmetry_multiplicity
  _atom_site_fract_x
  _atom_site_fract_y
  _atom_site_fract_z
  _atom_site_attached_hydrogens
  _atom_site_B_iso_or_equiv
  _atom_site_occupancy
   V  V1  1  0.062496  0.937504  0.086232  0  .  1
   V  V2  1  0.148771  0.851229  0.343163  0  .  1
   V  V3  1  0.178497  0.821503  0.026647  0  .  1
   V  V4  1  0.302463  0.697537  0.207389  0  .  1
   V  V5  1  0.392071  0.607929  0.467854  0  .  1
   V  V6  1  0.413723  0.586277  0.144296  0  .  1
   V  V7  1  0.586277  0.413723  0.855704  0  .  1
   V  V8  1  0.607929  0.392071  0.532146  0  .  1
   V  V9  1  0.697537  0.302463  0.792611  0  .  1
   V  V10  1  0.821503  0.178497  0.973353  0  .  1
   V  V11  1  0.851229  0.148771  0.656837  0  .  1
   V  V12  1  0.937504  0.062496  0.913768  0  .  1
   O  O13  1  0.099309  0.900691  0.902620  0  .  1
   O  O14  1  0.058404  0.941596  0.240606  0  .  1
   O  O15  1  0.124581  0.875419  0.514923  0  .  1
   O  O16  1  0.138457  0.861543  0.161033  0  .  1
   O  O17  1  0.193174  0.806826  0.839851  0  .  1
   O  O18  1  0.206044  0.793956  0.388047  0  .  1
   O  O19  1  0.236495  0.763505  0.122299  0  .  1
   O  O20  1  0.298427  0.701573  0.361368  0  .  1
   O  O21  1  0.369084  0.630916  0.635448  0  .  1
   O  O22  1  0.333440  0.666560  0.024717  0  .  1
   O  O23  1  0.376653  0.623347  0.278588  0  .  1
   O  O24  1  0.428914  0.571086  0.961030  0  .  1
   O  O25  1  0.449424  0.550576  0.502518  0  .  1
   O  O26  1  0.467198  0.532802  0.233621  0  .  1
   O  O27  1  0.532802  0.467198  0.766379  0  .  1
   O  O28  1  0.000000  0.000000  0.000000  0  .  1
   O  O29  1  0.550576  0.449424  0.497482  0  .  1
   O  O30  1  0.571086  0.428914  0.038970  0  .  1
   O  O31  1  0.623347  0.376653  0.721412  0  .  1
   O  O32  1  0.666560  0.333440  0.975283  0  .  1
   O  O33  1  0.630916  0.369084  0.364552  0  .  1
   O  O34  1  0.701573  0.298427  0.638632  0  .  1
   O  O35  1  0.763505  0.236495  0.877701  0  .  1
   O  O36  1  0.793956  0.206044  0.611953  0  .  1
   O  O37  1  0.806826  0.193174  0.160149  0  .  1
   O  O38  1  0.861543  0.138457  0.838967  0  .  1
   O  O39  1  0.875419  0.124581  0.485077  0  .  1
   O  O40  1  0.941596  0.058404  0.759394  0  .  1
   O  O41  1  0.900691  0.099309  0.097380  0  .  1
 
