#\#CIF1.1
##########################################################################
#               Crystallographic Information Format file 
#               Produced by PyCifRW module
# 
#  This is a CIF file.  CIF has been adopted by the International
#  Union of Crystallography as the standard for data archiving and 
#  transmission.
#
#  For information on this file format, follow the CIF links at
#  http://www.iucr.org
##########################################################################

data_V13O16
_symmetry_space_group_name_H-M          'P 1'
_cell_length_a                          8.07621868459
_cell_length_b                          11.3968829175
_cell_length_c                          11.3968829564
_cell_angle_alpha                       82.7880249237
_cell_angle_beta                        69.2484092394
_cell_angle_gamma                       69.2484053829
_chemical_name_systematic               'Generated by pymatgen'
_symmetry_Int_Tables_number             1
_chemical_formula_structural            V13O16
_chemical_formula_sum                   'V26 O32'
_cell_volume                            917.318000324
_cell_formula_units_Z                   2
loop_
  _symmetry_equiv_pos_site_id
  _symmetry_equiv_pos_as_xyz
   1  'x, y, z'
 
loop_
  _atom_site_type_symbol
  _atom_site_label
  _atom_site_symmetry_multiplicity
  _atom_site_fract_x
  _atom_site_fract_y
  _atom_site_fract_z
  _atom_site_attached_hydrogens
  _atom_site_B_iso_or_equiv
  _atom_site_occupancy
   O  O1  1  0.598528  0.153611  0.160743  0  .  1
   O  O2  1  0.912881  0.346389  0.339257  0  .  1
   O  O3  1  0.259270  0.339257  0.153611  0  .  1
   O  O4  1  0.752138  0.160743  0.346389  0  .  1
   O  O5  1  0.401473  0.339257  0.346389  0  .  1
   O  O6  1  0.247862  0.153611  0.339258  0  .  1
   O  O7  1  0.740730  0.346389  0.160743  0  .  1
   O  O8  1  0.087119  0.160743  0.153610  0  .  1
   O  O9  1  0.401472  0.846389  0.839258  0  .  1
   O  O10  1  0.087119  0.653611  0.660743  0  .  1
   O  O11  1  0.740730  0.660743  0.846390  0  .  1
   O  O12  1  0.247862  0.839257  0.653610  0  .  1
   O  O13  1  0.598527  0.660743  0.653611  0  .  1
   O  O14  1  0.752138  0.846389  0.660743  0  .  1
   O  O15  1  0.259271  0.653611  0.839257  0  .  1
   O  O16  1  0.912881  0.839257  0.846389  0  .  1
   O  O17  1  0.762719  0.156710  0.843291  0  .  1
   O  O18  1  0.762719  0.343290  0.656710  0  .  1
   O  O19  1  0.106009  0.656710  0.156710  0  .  1
   O  O20  1  0.919428  0.843290  0.343291  0  .  1
   O  O21  1  0.237282  0.656710  0.343291  0  .  1
   O  O22  1  0.080572  0.156710  0.656710  0  .  1
   O  O23  1  0.893991  0.343290  0.843291  0  .  1
   O  O24  1  0.237281  0.843290  0.156710  0  .  1
   O  O25  1  0.254115  0.152888  0.847113  0  .  1
   O  O26  1  0.254116  0.347112  0.652887  0  .  1
   O  O27  1  0.745885  0.847112  0.152887  0  .  1
   O  O28  1  0.398772  0.347112  0.847113  0  .  1
   O  O29  1  0.592997  0.152888  0.652888  0  .  1
   O  O30  1  0.601227  0.652888  0.152888  0  .  1
   O  O31  1  0.407003  0.847112  0.347113  0  .  1
   O  O32  1  0.745884  0.652888  0.347113  0  .  1
   V  V33  1  0.009178  0.154901  0.845100  0  .  1
   V  V34  1  0.009179  0.345099  0.654901  0  .  1
   V  V35  1  0.354278  0.654901  0.154900  0  .  1
   V  V36  1  0.164079  0.845099  0.345100  0  .  1
   V  V37  1  0.990822  0.654901  0.345100  0  .  1
   V  V38  1  0.835922  0.154901  0.654900  0  .  1
   V  V39  1  0.645722  0.345099  0.845100  0  .  1
   V  V40  1  0.990823  0.845099  0.154900  0  .  1
   V  V41  1  0.148856  0.351144  0.351144  0  .  1
   V  V42  1  0.999999  0.148857  0.351144  0  .  1
   V  V43  1  0.500000  0.351144  0.148857  0  .  1
   V  V44  1  0.851143  0.148857  0.148857  0  .  1
   V  V45  1  0.851144  0.648857  0.648857  0  .  1
   V  V46  1  0.999999  0.851144  0.648857  0  .  1
   V  V47  1  0.499999  0.648857  0.851144  0  .  1
   V  V48  1  0.148857  0.851144  0.851143  0  .  1
   V  V49  1  0.641259  0.858741  0.858741  0  .  1
   V  V50  1  1.000000  0.641259  0.858741  0  .  1
   V  V51  1  0.500000  0.858741  0.641259  0  .  1
   V  V52  1  0.358741  0.641259  0.641259  0  .  1
   V  V53  1  0.358741  0.141259  0.141259  0  .  1
   V  V54  1  0.000000  0.358741  0.141259  0  .  1
   V  V55  1  0.500000  0.141259  0.358741  0  .  1
   V  V56  1  0.641259  0.358741  0.358741  0  .  1
   V  V57  1  0.625000  0.750000  0.250000  0  .  1
   V  V58  1  0.375000  0.250000  0.750000  0  .  1
 
