#\#CIF1.1
##########################################################################
#               Crystallographic Information Format file 
#               Produced by PyCifRW module
# 
#  This is a CIF file.  CIF has been adopted by the International
#  Union of Crystallography as the standard for data archiving and 
#  transmission.
#
#  For information on this file format, follow the CIF links at
#  http://www.iucr.org
##########################################################################

data_V2Co3O8
_symmetry_space_group_name_H-M          'P 1'
_cell_length_a                          6.08933267
_cell_length_b                          6.58409615422
_cell_length_c                          8.38768409
_cell_angle_alpha                       90.0
_cell_angle_beta                        90.0
_cell_angle_gamma                       117.543853212
_chemical_name_systematic               'Generated by pymatgen'
_symmetry_Int_Tables_number             1
_chemical_formula_structural            V2Co3O8
_chemical_formula_sum                   'V4 Co6 O16'
_cell_volume                            298.169801055
_cell_formula_units_Z                   2
loop_
  _symmetry_equiv_pos_site_id
  _symmetry_equiv_pos_as_xyz
   1  'x, y, z'
 
loop_
  _atom_site_type_symbol
  _atom_site_label
  _atom_site_symmetry_multiplicity
  _atom_site_fract_x
  _atom_site_fract_y
  _atom_site_fract_z
  _atom_site_attached_hydrogens
  _atom_site_B_iso_or_equiv
  _atom_site_occupancy
   O  O1  1  0.651074  0.765941  0.496747  0  .  1
   O  O2  1  0.885134  0.234060  0.503253  0  .  1
   O  O3  1  0.848926  0.234060  0.996747  0  .  1
   O  O4  1  0.614866  0.765941  0.003253  0  .  1
   O  O5  1  0.348926  0.234060  0.503253  0  .  1
   O  O6  1  0.114867  0.765941  0.496747  0  .  1
   O  O7  1  0.151075  0.765941  0.003253  0  .  1
   O  O8  1  0.385133  0.234060  0.996747  0  .  1
   O  O9  1  0.496964  0.993929  0.746188  0  .  1
   O  O10  1  0.503036  0.006071  0.253812  0  .  1
   O  O11  1  0.247325  0.494650  0.775486  0  .  1
   O  O12  1  0.752676  0.505351  0.224514  0  .  1
   O  O13  1  0.252676  0.505351  0.275486  0  .  1
   O  O14  1  0.003036  0.006071  0.246188  0  .  1
   O  O15  1  0.996964  0.993929  0.753812  0  .  1
   O  O16  1  0.747325  0.494650  0.724514  0  .  1
   V  V17  1  0.876070  0.752140  0.617732  0  .  1
   V  V18  1  0.123930  0.247859  0.382268  0  .  1
   V  V19  1  0.623931  0.247859  0.117732  0  .  1
   V  V20  1  0.376070  0.752140  0.882268  0  .  1
   Co  Co21  1  0.618620  0.737241  0.250000  0  .  1
   Co  Co22  1  0.881381  0.262761  0.750000  0  .  1
   Co  Co23  1  0.118620  0.737241  0.250000  0  .  1
   Co  Co24  1  0.381380  0.262761  0.750000  0  .  1
   Co  Co25  1  0.500000  0.000000  0.500000  0  .  1
   Co  Co26  1  0.000000  0.000000  0.000000  0  .  1
 
