#\#CIF1.1
##########################################################################
#               Crystallographic Information Format file 
#               Produced by PyCifRW module
# 
#  This is a CIF file.  CIF has been adopted by the International
#  Union of Crystallography as the standard for data archiving and 
#  transmission.
#
#  For information on this file format, follow the CIF links at
#  http://www.iucr.org
##########################################################################

data_V2CrO6
_symmetry_space_group_name_H-M          'P 1'
_cell_length_a                          6.76220847183
_cell_length_b                          6.7622085836
_cell_length_c                          5.7081036746
_cell_angle_alpha                       75.1727156675
_cell_angle_beta                        104.827282935
_cell_angle_gamma                       95.3696195283
_chemical_name_systematic               'Generated by pymatgen'
_symmetry_Int_Tables_number             1
_chemical_formula_structural            V2CrO6
_chemical_formula_sum                   'V4 Cr2 O12'
_cell_volume                            243.813394906
_cell_formula_units_Z                   2
loop_
  _symmetry_equiv_pos_site_id
  _symmetry_equiv_pos_as_xyz
   1  'x, y, z'
 
loop_
  _atom_site_type_symbol
  _atom_site_label
  _atom_site_symmetry_multiplicity
  _atom_site_fract_x
  _atom_site_fract_y
  _atom_site_fract_z
  _atom_site_attached_hydrogens
  _atom_site_B_iso_or_equiv
  _atom_site_occupancy
   V  V1  1  0.200559  0.604989  0.760259  0  .  1
   V  V2  1  0.395011  0.799441  0.260259  0  .  1
   V  V3  1  0.604989  0.200559  0.739741  0  .  1
   V  V4  1  0.799441  0.395011  0.239741  0  .  1
   Cr  Cr5  1  0.083681  0.083681  0.750000  0  .  1
   Cr  Cr6  1  0.916319  0.916319  0.250000  0  .  1
   O  O7  1  0.031326  0.812967  0.631165  0  .  1
   O  O8  1  0.084409  0.365252  0.787497  0  .  1
   O  O9  1  0.187033  0.968674  0.131165  0  .  1
   O  O10  1  0.370920  0.646756  0.557476  0  .  1
   O  O11  1  0.365252  0.084409  0.712503  0  .  1
   O  O12  1  0.353245  0.629080  0.057476  0  .  1
   O  O13  1  0.646756  0.370920  0.942524  0  .  1
   O  O14  1  0.634748  0.915591  0.287497  0  .  1
   O  O15  1  0.629080  0.353245  0.442524  0  .  1
   O  O16  1  0.812967  0.031326  0.868835  0  .  1
   O  O17  1  0.915591  0.634748  0.212503  0  .  1
   O  O18  1  0.968674  0.187033  0.368835  0  .  1
 
