#\#CIF1.1
##########################################################################
#               Crystallographic Information Format file 
#               Produced by PyCifRW module
# 
#  This is a CIF file.  CIF has been adopted by the International
#  Union of Crystallography as the standard for data archiving and 
#  transmission.
#
#  For information on this file format, follow the CIF links at
#  http://www.iucr.org
##########################################################################

data_V2FeO6
_symmetry_space_group_name_H-M          'P 1'
_cell_length_a                          6.85764699962
_cell_length_b                          6.85764765296
_cell_length_c                          5.89004013572
_cell_angle_alpha                       74.7734181695
_cell_angle_beta                        105.226580579
_cell_angle_gamma                       95.4357471181
_chemical_name_systematic               'Generated by pymatgen'
_symmetry_Int_Tables_number             1
_chemical_formula_structural            V2FeO6
_chemical_formula_sum                   'V4 Fe2 O12'
_cell_volume                            257.787734048
_cell_formula_units_Z                   2
loop_
  _symmetry_equiv_pos_site_id
  _symmetry_equiv_pos_as_xyz
   1  'x, y, z'
 
loop_
  _atom_site_type_symbol
  _atom_site_label
  _atom_site_symmetry_multiplicity
  _atom_site_fract_x
  _atom_site_fract_y
  _atom_site_fract_z
  _atom_site_attached_hydrogens
  _atom_site_B_iso_or_equiv
  _atom_site_occupancy
   V  V1  1  0.207387  0.610955  0.763474  0  .  1
   V  V2  1  0.389045  0.792613  0.263474  0  .  1
   V  V3  1  0.610955  0.207387  0.736526  0  .  1
   V  V4  1  0.792613  0.389045  0.236526  0  .  1
   Fe  Fe5  1  0.084009  0.084009  0.750000  0  .  1
   Fe  Fe6  1  0.915991  0.915991  0.250000  0  .  1
   O  O7  1  0.035668  0.802080  0.645019  0  .  1
   O  O8  1  0.092683  0.380976  0.788020  0  .  1
   O  O9  1  0.197920  0.964332  0.145019  0  .  1
   O  O10  1  0.366213  0.643593  0.556959  0  .  1
   O  O11  1  0.380976  0.092683  0.711980  0  .  1
   O  O12  1  0.356407  0.633787  0.056959  0  .  1
   O  O13  1  0.643593  0.366213  0.943041  0  .  1
   O  O14  1  0.619024  0.907317  0.288020  0  .  1
   O  O15  1  0.633787  0.356407  0.443041  0  .  1
   O  O16  1  0.802080  0.035668  0.854981  0  .  1
   O  O17  1  0.907317  0.619024  0.211980  0  .  1
   O  O18  1  0.964332  0.197920  0.354981  0  .  1
 
