#\#CIF1.1
##########################################################################
#               Crystallographic Information Format file 
#               Produced by PyCifRW module
# 
#  This is a CIF file.  CIF has been adopted by the International
#  Union of Crystallography as the standard for data archiving and 
#  transmission.
#
#  For information on this file format, follow the CIF links at
#  http://www.iucr.org
##########################################################################

data_V2FeO4
_symmetry_space_group_name_H-M          'P 1'
_cell_length_a                          6.0505030861
_cell_length_b                          6.05050308158
_cell_length_c                          6.05050309
_cell_angle_alpha                       60.0000000087
_cell_angle_beta                        60.0000000334
_cell_angle_gamma                       60.0000000291
_chemical_name_systematic               'Generated by pymatgen'
_symmetry_Int_Tables_number             1
_chemical_formula_structural            V2FeO4
_chemical_formula_sum                   'V4 Fe2 O8'
_cell_volume                            156.624415301
_cell_formula_units_Z                   2
loop_
  _symmetry_equiv_pos_site_id
  _symmetry_equiv_pos_as_xyz
   1  'x, y, z'
 
loop_
  _atom_site_type_symbol
  _atom_site_label
  _atom_site_symmetry_multiplicity
  _atom_site_fract_x
  _atom_site_fract_y
  _atom_site_fract_z
  _atom_site_attached_hydrogens
  _atom_site_B_iso_or_equiv
  _atom_site_occupancy
   O  O1  1  0.744123  0.744123  0.744123  0  .  1
   O  O2  1  0.255877  0.255877  0.732368  0  .  1
   O  O3  1  0.255877  0.732368  0.255877  0  .  1
   O  O4  1  0.732368  0.255877  0.255877  0  .  1
   O  O5  1  0.744123  0.267632  0.744123  0  .  1
   O  O6  1  0.267632  0.744123  0.744123  0  .  1
   O  O7  1  0.255877  0.255877  0.255877  0  .  1
   O  O8  1  0.744123  0.744123  0.267632  0  .  1
   V  V9  1  0.500000  0.000000  0.500000  0  .  1
   V  V10  1  0.000000  0.500000  0.500000  0  .  1
   V  V11  1  0.500000  0.500000  0.000000  0  .  1
   V  V12  1  0.500000  0.500000  0.500000  0  .  1
   Fe  Fe13  1  0.125000  0.125000  0.125000  0  .  1
   Fe  Fe14  1  0.875000  0.875000  0.875000  0  .  1
 
