#\#CIF1.1
##########################################################################
#               Crystallographic Information Format file 
#               Produced by PyCifRW module
# 
#  This is a CIF file.  CIF has been adopted by the International
#  Union of Crystallography as the standard for data archiving and 
#  transmission.
#
#  For information on this file format, follow the CIF links at
#  http://www.iucr.org
##########################################################################

data_V2Ni2O7
_symmetry_space_group_name_H-M          'P 1'
_cell_length_a                          6.63248677303
_cell_length_b                          8.42682848
_cell_length_c                          9.51028537013
_cell_angle_alpha                       90.0
_cell_angle_beta                        100.11026197
_cell_angle_gamma                       90.0
_chemical_name_systematic               'Generated by pymatgen'
_symmetry_Int_Tables_number             1
_chemical_formula_structural            V2Ni2O7
_chemical_formula_sum                   'V8 Ni8 O28'
_cell_volume                            523.283879948
_cell_formula_units_Z                   4
loop_
  _symmetry_equiv_pos_site_id
  _symmetry_equiv_pos_as_xyz
   1  'x, y, z'
 
loop_
  _atom_site_type_symbol
  _atom_site_label
  _atom_site_symmetry_multiplicity
  _atom_site_fract_x
  _atom_site_fract_y
  _atom_site_fract_z
  _atom_site_attached_hydrogens
  _atom_site_B_iso_or_equiv
  _atom_site_occupancy
   O  O1  1  0.853603  0.119811  0.505336  0  .  1
   O  O2  1  0.146397  0.619811  0.994664  0  .  1
   O  O3  1  0.146397  0.880189  0.494664  0  .  1
   O  O4  1  0.853603  0.380189  0.005336  0  .  1
   O  O5  1  0.029637  0.417490  0.747658  0  .  1
   O  O6  1  0.970363  0.917490  0.752342  0  .  1
   O  O7  1  0.970363  0.582510  0.252342  0  .  1
   O  O8  1  0.029637  0.082510  0.247658  0  .  1
   O  O9  1  0.678719  0.124049  0.848684  0  .  1
   O  O10  1  0.321281  0.624049  0.651316  0  .  1
   O  O11  1  0.321281  0.875951  0.151316  0  .  1
   O  O12  1  0.678719  0.375951  0.348684  0  .  1
   O  O13  1  0.254770  0.142806  0.679908  0  .  1
   O  O14  1  0.745230  0.642806  0.820092  0  .  1
   O  O15  1  0.745230  0.857194  0.320092  0  .  1
   O  O16  1  0.254770  0.357194  0.179908  0  .  1
   O  O17  1  0.604349  0.131478  0.124584  0  .  1
   O  O18  1  0.395651  0.631478  0.375416  0  .  1
   O  O19  1  0.395651  0.868522  0.875416  0  .  1
   O  O20  1  0.604349  0.368522  0.624584  0  .  1
   O  O21  1  0.425935  0.126253  0.394069  0  .  1
   O  O22  1  0.574065  0.626253  0.105931  0  .  1
   O  O23  1  0.574065  0.873747  0.605931  0  .  1
   O  O24  1  0.425935  0.373747  0.894069  0  .  1
   O  O25  1  0.170863  0.368033  0.459489  0  .  1
   O  O26  1  0.829137  0.868033  0.040511  0  .  1
   O  O27  1  0.829137  0.631967  0.540511  0  .  1
   O  O28  1  0.170863  0.131967  0.959489  0  .  1
   V  V29  1  0.194890  0.480575  0.312105  0  .  1
   V  V30  1  0.805110  0.980575  0.187895  0  .  1
   V  V31  1  0.805110  0.519425  0.687895  0  .  1
   V  V32  1  0.194890  0.019425  0.812105  0  .  1
   V  V33  1  0.362478  0.740328  0.031218  0  .  1
   V  V34  1  0.637522  0.240328  0.468782  0  .  1
   V  V35  1  0.637522  0.259672  0.968782  0  .  1
   V  V36  1  0.362478  0.759672  0.531218  0  .  1
   Ni  Ni37  1  0.303128  0.112820  0.178759  0  .  1
   Ni  Ni38  1  0.696872  0.612820  0.321241  0  .  1
   Ni  Ni39  1  0.696872  0.887180  0.821241  0  .  1
   Ni  Ni40  1  0.303128  0.387180  0.678759  0  .  1
   Ni  Ni41  1  0.146218  0.378923  0.962671  0  .  1
   Ni  Ni42  1  0.853782  0.878923  0.537329  0  .  1
   Ni  Ni43  1  0.853782  0.621077  0.037329  0  .  1
   Ni  Ni44  1  0.146218  0.121077  0.462671  0  .  1
 
