#\#CIF1.1
##########################################################################
#               Crystallographic Information Format file 
#               Produced by PyCifRW module
# 
#  This is a CIF file.  CIF has been adopted by the International
#  Union of Crystallography as the standard for data archiving and 
#  transmission.
#
#  For information on this file format, follow the CIF links at
#  http://www.iucr.org
##########################################################################

data_V2NiO6
_symmetry_space_group_name_H-M          'P 1'
_cell_length_a                          6.75196460071
_cell_length_b                          6.75196424703
_cell_length_c                          5.82019996921
_cell_angle_alpha                       74.6477605819
_cell_angle_beta                        105.352236437
_cell_angle_gamma                       95.6984299164
_chemical_name_systematic               'Generated by pymatgen'
_symmetry_Int_Tables_number             1
_chemical_formula_structural            V2NiO6
_chemical_formula_sum                   'V4 Ni2 O12'
_cell_volume                            246.617072723
_cell_formula_units_Z                   2
loop_
  _symmetry_equiv_pos_site_id
  _symmetry_equiv_pos_as_xyz
   1  'x, y, z'
 
loop_
  _atom_site_type_symbol
  _atom_site_label
  _atom_site_symmetry_multiplicity
  _atom_site_fract_x
  _atom_site_fract_y
  _atom_site_fract_z
  _atom_site_attached_hydrogens
  _atom_site_B_iso_or_equiv
  _atom_site_occupancy
   V  V1  1  0.203812  0.610057  0.762688  0  .  1
   V  V2  1  0.389943  0.796188  0.262688  0  .  1
   V  V3  1  0.610057  0.203812  0.737312  0  .  1
   V  V4  1  0.796188  0.389943  0.237312  0  .  1
   Ni  Ni5  1  0.083371  0.083371  0.750000  0  .  1
   Ni  Ni6  1  0.916629  0.916629  0.250000  0  .  1
   O  O7  1  0.031328  0.805234  0.639612  0  .  1
   O  O8  1  0.086773  0.376634  0.786495  0  .  1
   O  O9  1  0.194766  0.968672  0.139612  0  .  1
   O  O10  1  0.367904  0.642644  0.558201  0  .  1
   O  O11  1  0.376634  0.086773  0.713505  0  .  1
   O  O12  1  0.357356  0.632096  0.058201  0  .  1
   O  O13  1  0.642644  0.367904  0.941799  0  .  1
   O  O14  1  0.623366  0.913227  0.286495  0  .  1
   O  O15  1  0.632096  0.357356  0.441799  0  .  1
   O  O16  1  0.805234  0.031328  0.860388  0  .  1
   O  O17  1  0.913227  0.623366  0.213505  0  .  1
   O  O18  1  0.968672  0.194766  0.360388  0  .  1
 
