#\#CIF1.1
##########################################################################
#               Crystallographic Information Format file 
#               Produced by PyCifRW module
# 
#  This is a CIF file.  CIF has been adopted by the International
#  Union of Crystallography as the standard for data archiving and 
#  transmission.
#
#  For information on this file format, follow the CIF links at
#  http://www.iucr.org
##########################################################################

data_V2O3
_symmetry_space_group_name_H-M          'P 1'
_cell_length_a                          5.99998895994
_cell_length_b                          6.92004277464
_cell_length_c                          5.99998826291
_cell_angle_alpha                       64.3086861607
_cell_angle_beta                        119.999994286
_cell_angle_gamma                       115.691309904
_chemical_name_systematic               'Generated by pymatgen'
_symmetry_Int_Tables_number             1
_chemical_formula_structural            V2O3
_chemical_formula_sum                   'V4 O6'
_cell_volume                            186.767080972
_cell_formula_units_Z                   2
loop_
  _symmetry_equiv_pos_site_id
  _symmetry_equiv_pos_as_xyz
   1  'x, y, z'
 
loop_
  _atom_site_type_symbol
  _atom_site_label
  _atom_site_symmetry_multiplicity
  _atom_site_fract_x
  _atom_site_fract_y
  _atom_site_fract_z
  _atom_site_attached_hydrogens
  _atom_site_B_iso_or_equiv
  _atom_site_occupancy
   V  V1  1  0.077862  0.233585  0.922138  0  .  1
   V  V2  1  0.422138  0.266415  0.577862  0  .  1
   V  V3  1  0.922140  0.766421  0.077860  0  .  1
   V  V4  1  0.577860  0.733579  0.422140  0  .  1
   O  O5  1  0.838071  0.750000  0.750000  0  .  1
   O  O6  1  0.750000  0.250000  0.661961  0  .  1
   O  O7  1  0.338039  0.250000  0.838039  0  .  1
   O  O8  1  0.161961  0.250000  0.250000  0  .  1
   O  O9  1  0.250000  0.750000  0.338071  0  .  1
   O  O10  1  0.661929  0.750000  0.161929  0  .  1
 
