#\#CIF1.1
##########################################################################
#               Crystallographic Information Format file 
#               Produced by PyCifRW module
# 
#  This is a CIF file.  CIF has been adopted by the International
#  Union of Crystallography as the standard for data archiving and 
#  transmission.
#
#  For information on this file format, follow the CIF links at
#  http://www.iucr.org
##########################################################################

data_V2Zn2O7
_symmetry_space_group_name_H-M          'P 1'
_cell_length_a                          5.082397299
_cell_length_b                          5.42635242423
_cell_length_c                          5.42635242229
_cell_angle_alpha                       106.357470658
_cell_angle_beta                        98.2478258843
_cell_angle_gamma                       98.2478258833
_chemical_name_systematic               'Generated by pymatgen'
_symmetry_Int_Tables_number             1
_chemical_formula_structural            V2Zn2O7
_chemical_formula_sum                   'V2 Zn2 O7'
_cell_volume                            139.420981464
_cell_formula_units_Z                   1
loop_
  _symmetry_equiv_pos_site_id
  _symmetry_equiv_pos_as_xyz
   1  'x, y, z'
 
loop_
  _atom_site_type_symbol
  _atom_site_label
  _atom_site_symmetry_multiplicity
  _atom_site_fract_x
  _atom_site_fract_y
  _atom_site_fract_z
  _atom_site_attached_hydrogens
  _atom_site_B_iso_or_equiv
  _atom_site_occupancy
   O  O1  1  0.222064  0.428256  0.428256  0  .  1
   O  O2  1  0.777936  0.571744  0.571744  0  .  1
   O  O3  1  0.294021  0.945164  0.610869  0  .  1
   O  O4  1  0.705979  0.389131  0.054836  0  .  1
   O  O5  1  0.000000  0.000000  0.000000  0  .  1
   O  O6  1  0.294021  0.610869  0.945164  0  .  1
   O  O7  1  0.705979  0.054836  0.389131  0  .  1
   V  V8  1  0.895327  0.242860  0.242860  0  .  1
   V  V9  1  0.104673  0.757140  0.757140  0  .  1
   Zn  Zn10  1  0.500000  0.315095  0.684905  0  .  1
   Zn  Zn11  1  0.500000  0.684905  0.315095  0  .  1
 
