#\#CIF1.1
##########################################################################
#               Crystallographic Information Format file 
#               Produced by PyCifRW module
# 
#  This is a CIF file.  CIF has been adopted by the International
#  Union of Crystallography as the standard for data archiving and 
#  transmission.
#
#  For information on this file format, follow the CIF links at
#  http://www.iucr.org
##########################################################################

data_V3CrO8
_symmetry_space_group_name_H-M          'P 1'
_cell_length_a                          6.38741512507
_cell_length_b                          6.38741555741
_cell_length_c                          6.47207470374
_cell_angle_alpha                       73.6043736799
_cell_angle_beta                        106.395624534
_cell_angle_gamma                       145.098226689
_chemical_name_systematic               'Generated by pymatgen'
_symmetry_Int_Tables_number             1
_chemical_formula_structural            V3CrO8
_chemical_formula_sum                   'V3 Cr1 O8'
_cell_volume                            144.319388434
_cell_formula_units_Z                   1
loop_
  _symmetry_equiv_pos_site_id
  _symmetry_equiv_pos_as_xyz
   1  'x, y, z'
 
loop_
  _atom_site_type_symbol
  _atom_site_label
  _atom_site_symmetry_multiplicity
  _atom_site_fract_x
  _atom_site_fract_y
  _atom_site_fract_z
  _atom_site_attached_hydrogens
  _atom_site_B_iso_or_equiv
  _atom_site_occupancy
   V  V1  1  0.401326  0.598674  0.297829  0  .  1
   V  V2  1  0.600871  0.399129  0.721854  0  .  1
   V  V3  1  0.297113  0.702887  0.710719  0  .  1
   Cr  Cr4  1  0.706745  0.293255  0.311856  0  .  1
   O  O5  1  0.134129  0.865871  0.692375  0  .  1
   O  O6  1  0.243482  0.756518  0.357481  0  .  1
   O  O7  1  0.358061  0.641939  0.985706  0  .  1
   O  O8  1  0.446223  0.553777  0.636288  0  .  1
   O  O9  1  0.550882  0.449118  0.355456  0  .  1
   O  O10  1  0.638919  0.361081  0.992968  0  .  1
   O  O11  1  0.756778  0.243222  0.645575  0  .  1
   O  O12  1  0.865471  0.134529  0.291894  0  .  1
 
