#\#CIF1.1
##########################################################################
#               Crystallographic Information Format file 
#               Produced by PyCifRW module
# 
#  This is a CIF file.  CIF has been adopted by the International
#  Union of Crystallography as the standard for data archiving and 
#  transmission.
#
#  For information on this file format, follow the CIF links at
#  http://www.iucr.org
##########################################################################

data_V3CuO8
_symmetry_space_group_name_H-M          'P 1'
_cell_length_a                          8.27367970161
_cell_length_b                          8.27371898171
_cell_length_c                          8.27388598157
_cell_angle_alpha                       90.0016353191
_cell_angle_beta                        90.0015203674
_cell_angle_gamma                       90.0016685799
_chemical_name_systematic               'Generated by pymatgen'
_symmetry_Int_Tables_number             1
_chemical_formula_structural            V3CuO8
_chemical_formula_sum                   'V12 Cu4 O32'
_cell_volume                            566.381424285
_cell_formula_units_Z                   4
loop_
  _symmetry_equiv_pos_site_id
  _symmetry_equiv_pos_as_xyz
   1  'x, y, z'
 
loop_
  _atom_site_type_symbol
  _atom_site_label
  _atom_site_symmetry_multiplicity
  _atom_site_fract_x
  _atom_site_fract_y
  _atom_site_fract_z
  _atom_site_attached_hydrogens
  _atom_site_B_iso_or_equiv
  _atom_site_occupancy
   V  V1  1  0.109975  0.624428  0.132502  0  .  1
   V  V2  1  0.124378  0.367469  0.890076  0  .  1
   V  V3  1  0.132484  0.109972  0.624431  0  .  1
   V  V4  1  0.367466  0.890044  0.124389  0  .  1
   V  V5  1  0.375610  0.632516  0.390027  0  .  1
   V  V6  1  0.390021  0.375603  0.632522  0  .  1
   V  V7  1  0.609963  0.875590  0.867513  0  .  1
   V  V8  1  0.624404  0.132503  0.109960  0  .  1
   V  V9  1  0.632512  0.390028  0.375618  0  .  1
   V  V10  1  0.867501  0.609977  0.875592  0  .  1
   V  V11  1  0.875584  0.867520  0.609966  0  .  1
   V  V12  1  0.890065  0.124387  0.367444  0  .  1
   Cu  Cu13  1  0.001795  0.498211  0.501802  0  .  1
   Cu  Cu14  1  0.498207  0.501791  0.001798  0  .  1
   Cu  Cu15  1  0.501792  0.001790  0.498208  0  .  1
   Cu  Cu16  1  0.998242  0.998238  0.998236  0  .  1
   O  O17  1  0.100753  0.131822  0.392794  0  .  1
   O  O18  1  0.107207  0.899249  0.631839  0  .  1
   O  O19  1  0.109156  0.609150  0.890881  0  .  1
   O  O20  1  0.131829  0.392790  0.100770  0  .  1
   O  O21  1  0.115987  0.147919  0.856911  0  .  1
   O  O22  1  0.138292  0.361690  0.638306  0  .  1
   O  O23  1  0.143119  0.616017  0.352059  0  .  1
   O  O24  1  0.147912  0.856911  0.115982  0  .  1
   O  O25  1  0.352057  0.143126  0.616015  0  .  1
   O  O26  1  0.356864  0.383997  0.852076  0  .  1
   O  O27  1  0.361686  0.638309  0.138283  0  .  1
   O  O28  1  0.383984  0.852077  0.356851  0  .  1
   O  O29  1  0.368178  0.607211  0.600750  0  .  1
   O  O30  1  0.390850  0.390850  0.390850  0  .  1
   O  O31  1  0.392790  0.100761  0.131823  0  .  1
   O  O32  1  0.399234  0.868161  0.892798  0  .  1
   O  O33  1  0.600752  0.368181  0.607194  0  .  1
   O  O34  1  0.607210  0.600750  0.368164  0  .  1
   O  O35  1  0.609150  0.890867  0.109140  0  .  1
   O  O36  1  0.631839  0.107207  0.899253  0  .  1
   O  O37  1  0.616005  0.352056  0.143116  0  .  1
   O  O38  1  0.638306  0.138288  0.361671  0  .  1
   O  O39  1  0.643133  0.884001  0.647947  0  .  1
   O  O40  1  0.647932  0.643124  0.884007  0  .  1
   O  O41  1  0.852079  0.356858  0.383971  0  .  1
   O  O42  1  0.856909  0.115982  0.147911  0  .  1
   O  O43  1  0.861710  0.861701  0.861717  0  .  1
   O  O44  1  0.883993  0.647938  0.643139  0  .  1
   O  O45  1  0.868161  0.892793  0.399244  0  .  1
   O  O46  1  0.890872  0.109146  0.609157  0  .  1
   O  O47  1  0.892805  0.399244  0.868172  0  .  1
   O  O48  1  0.899248  0.631839  0.107208  0  .  1
 
