#\#CIF1.1
##########################################################################
#               Crystallographic Information Format file 
#               Produced by PyCifRW module
# 
#  This is a CIF file.  CIF has been adopted by the International
#  Union of Crystallography as the standard for data archiving and 
#  transmission.
#
#  For information on this file format, follow the CIF links at
#  http://www.iucr.org
##########################################################################

data_V3FeO8
_symmetry_space_group_name_H-M          'P 1'
_cell_length_a                          5.56451356773
_cell_length_b                          7.36062321117
_cell_length_c                          5.4795745486
_cell_angle_alpha                       89.8231650169
_cell_angle_beta                        90.2572877391
_cell_angle_gamma                       90.2769745883
_chemical_name_systematic               'Generated by pymatgen'
_symmetry_Int_Tables_number             1
_chemical_formula_structural            V3FeO8
_chemical_formula_sum                   'V3 Fe1 O8'
_cell_volume                            224.428051847
_cell_formula_units_Z                   1
loop_
  _symmetry_equiv_pos_site_id
  _symmetry_equiv_pos_as_xyz
   1  'x, y, z'
 
loop_
  _atom_site_type_symbol
  _atom_site_label
  _atom_site_symmetry_multiplicity
  _atom_site_fract_x
  _atom_site_fract_y
  _atom_site_fract_z
  _atom_site_attached_hydrogens
  _atom_site_B_iso_or_equiv
  _atom_site_occupancy
   V  V1  1  0.071711  0.122040  0.003869  0  .  1
   V  V2  1  0.427795  0.626042  0.503466  0  .  1
   V  V3  1  0.574595  0.375783  0.002621  0  .  1
   Fe  Fe4  1  0.927828  0.875039  0.503064  0  .  1
   O  O5  1  0.031542  0.073502  0.312689  0  .  1
   O  O6  1  0.127164  0.675426  0.438409  0  .  1
   O  O7  1  0.370975  0.172903  0.938910  0  .  1
   O  O8  1  0.467882  0.576293  0.811739  0  .  1
   O  O9  1  0.522550  0.440349  0.334919  0  .  1
   O  O10  1  0.606261  0.814866  0.432262  0  .  1
   O  O11  1  0.897590  0.311620  0.933027  0  .  1
   O  O12  1  0.974108  0.936135  0.833423  0  .  1
 
