#\#CIF1.1
##########################################################################
#               Crystallographic Information Format file 
#               Produced by PyCifRW module
# 
#  This is a CIF file.  CIF has been adopted by the International
#  Union of Crystallography as the standard for data archiving and 
#  transmission.
#
#  For information on this file format, follow the CIF links at
#  http://www.iucr.org
##########################################################################

data_V3O7
_symmetry_space_group_name_H-M          'P 1'
_cell_length_a                          10.8442678912
_cell_length_b                          10.844268162
_cell_length_c                          9.76934169161
_cell_angle_alpha                       89.9990259978
_cell_angle_beta                        90.000984508
_cell_angle_gamma                       60.0061757957
_chemical_name_systematic               'Generated by pymatgen'
_symmetry_Int_Tables_number             1
_chemical_formula_structural            V3O7
_chemical_formula_sum                   'V18 O42'
_cell_volume                            995.000824572
_cell_formula_units_Z                   6
loop_
  _symmetry_equiv_pos_site_id
  _symmetry_equiv_pos_as_xyz
   1  'x, y, z'
 
loop_
  _atom_site_type_symbol
  _atom_site_label
  _atom_site_symmetry_multiplicity
  _atom_site_fract_x
  _atom_site_fract_y
  _atom_site_fract_z
  _atom_site_attached_hydrogens
  _atom_site_B_iso_or_equiv
  _atom_site_occupancy
   V  V1  1  0.119948  0.199568  0.702602  0  .  1
   V  V2  1  0.160109  0.157835  0.351503  0  .  1
   V  V3  1  0.194309  0.117431  0.000342  0  .  1
   V  V4  1  0.117429  0.688242  0.000378  0  .  1
   V  V5  1  0.157801  0.682063  0.351515  0  .  1
   V  V6  1  0.199599  0.680469  0.702657  0  .  1
   V  V7  1  0.319531  0.800402  0.202658  0  .  1
   V  V8  1  0.317938  0.842198  0.851515  0  .  1
   V  V9  1  0.680439  0.119883  0.702638  0  .  1
   V  V10  1  0.311758  0.882571  0.500378  0  .  1
   V  V11  1  0.682053  0.160108  0.351517  0  .  1
   V  V12  1  0.688222  0.194337  0.000384  0  .  1
   V  V13  1  0.805663  0.311778  0.500383  0  .  1
   V  V14  1  0.839892  0.317947  0.851517  0  .  1
   V  V15  1  0.880117  0.319561  0.202637  0  .  1
   V  V16  1  0.800432  0.880052  0.202601  0  .  1
   V  V17  1  0.842165  0.839892  0.851503  0  .  1
   V  V18  1  0.882569  0.805691  0.500342  0  .  1
   O  O19  1  0.084673  0.173869  0.167742  0  .  1
   O  O20  1  0.035242  0.253194  0.895835  0  .  1
   O  O21  1  0.179024  0.075829  0.533212  0  .  1
   O  O22  1  0.257585  0.034832  0.815356  0  .  1
   O  O23  1  0.160565  0.318592  0.663968  0  .  1
   O  O24  1  0.243455  0.243900  0.351474  0  .  1
   O  O25  1  0.034817  0.707570  0.815386  0  .  1
   O  O26  1  0.313929  0.157961  0.035823  0  .  1
   O  O27  1  0.157947  0.528070  0.035815  0  .  1
   O  O28  1  0.075882  0.745122  0.533244  0  .  1
   O  O29  1  0.243815  0.512696  0.351455  0  .  1
   O  O30  1  0.173864  0.741451  0.167758  0  .  1
   O  O31  1  0.318532  0.520889  0.664012  0  .  1
   O  O32  1  0.520836  0.160545  0.664031  0  .  1
   O  O33  1  0.253243  0.711491  0.895876  0  .  1
   O  O34  1  0.512693  0.243402  0.351506  0  .  1
   O  O35  1  0.258549  0.826136  0.667758  0  .  1
   O  O36  1  0.288509  0.746757  0.395876  0  .  1
   O  O37  1  0.528093  0.313962  0.035840  0  .  1
   O  O38  1  0.254878  0.924118  0.033244  0  .  1
   O  O39  1  0.711528  0.035234  0.895886  0  .  1
   O  O40  1  0.292430  0.965183  0.315386  0  .  1
   O  O41  1  0.741412  0.084708  0.167737  0  .  1
   O  O42  1  0.479111  0.681468  0.164012  0  .  1
   O  O43  1  0.707563  0.257582  0.815386  0  .  1
   O  O44  1  0.745113  0.179005  0.533250  0  .  1
   O  O45  1  0.487303  0.756185  0.851455  0  .  1
   O  O46  1  0.742417  0.292437  0.315386  0  .  1
   O  O47  1  0.471930  0.842053  0.535815  0  .  1
   O  O48  1  0.686038  0.471907  0.535840  0  .  1
   O  O49  1  0.820995  0.254887  0.033250  0  .  1
   O  O50  1  0.756598  0.487307  0.851506  0  .  1
   O  O51  1  0.915292  0.258589  0.667737  0  .  1
   O  O52  1  0.839455  0.479164  0.164031  0  .  1
   O  O53  1  0.681408  0.839435  0.163968  0  .  1
   O  O54  1  0.964766  0.288472  0.395886  0  .  1
   O  O55  1  0.756100  0.756545  0.851474  0  .  1
   O  O56  1  0.842039  0.686071  0.535823  0  .  1
   O  O57  1  0.746806  0.964758  0.395835  0  .  1
   O  O58  1  0.826131  0.915327  0.667742  0  .  1
   O  O59  1  0.965168  0.742415  0.315356  0  .  1
   O  O60  1  0.924171  0.820976  0.033212  0  .  1
 
