#\#CIF1.1
##########################################################################
#               Crystallographic Information Format file 
#               Produced by PyCifRW module
# 
#  This is a CIF file.  CIF has been adopted by the International
#  Union of Crystallography as the standard for data archiving and 
#  transmission.
#
#  For information on this file format, follow the CIF links at
#  http://www.iucr.org
##########################################################################

data_V3S
_symmetry_space_group_name_H-M          'P 1'
_cell_length_a                          4.55003197921
_cell_length_b                          7.06025962396
_cell_length_c                          7.06025962404
_cell_angle_alpha                       84.0401730707
_cell_angle_beta                        71.2022587045
_cell_angle_gamma                       71.2022587112
_chemical_name_systematic               'Generated by pymatgen'
_symmetry_Int_Tables_number             1
_chemical_formula_structural            V3S
_chemical_formula_sum                   'V12 S4'
_cell_volume                            203.257063789
_cell_formula_units_Z                   4
loop_
  _symmetry_equiv_pos_site_id
  _symmetry_equiv_pos_as_xyz
   1  'x, y, z'
 
loop_
  _atom_site_type_symbol
  _atom_site_label
  _atom_site_symmetry_multiplicity
  _atom_site_fract_x
  _atom_site_fract_y
  _atom_site_fract_z
  _atom_site_attached_hydrogens
  _atom_site_B_iso_or_equiv
  _atom_site_occupancy
   S  S1  1  0.211251  0.288749  0.288749  0  .  1
   S  S2  1  0.500000  0.288749  0.711251  0  .  1
   S  S3  1  0.500000  0.711251  0.288749  0  .  1
   S  S4  1  0.788749  0.711251  0.711251  0  .  1
   V  V5  1  0.461636  0.000000  0.600829  0  .  1
   V  V6  1  0.937535  0.600829  0.000000  0  .  1
   V  V7  1  0.538364  0.399171  0.000000  0  .  1
   V  V8  1  0.062465  0.000000  0.399171  0  .  1
   V  V9  1  0.357612  0.642388  0.642388  0  .  1
   V  V10  1  0.000000  0.642388  0.357612  0  .  1
   V  V11  1  0.000000  0.357612  0.642388  0  .  1
   V  V12  1  0.642388  0.357612  0.357612  0  .  1
   V  V13  1  0.670677  0.000000  0.182907  0  .  1
   V  V14  1  0.146416  0.182907  0.000000  0  .  1
   V  V15  1  0.329323  0.817093  0.000000  0  .  1
   V  V16  1  0.853584  0.000000  0.817093  0  .  1
 
