#\#CIF1.1
##########################################################################
#               Crystallographic Information Format file 
#               Produced by PyCifRW module
# 
#  This is a CIF file.  CIF has been adopted by the International
#  Union of Crystallography as the standard for data archiving and 
#  transmission.
#
#  For information on this file format, follow the CIF links at
#  http://www.iucr.org
##########################################################################

data_V3S4
_symmetry_space_group_name_H-M          'P 1'
_cell_length_a                          3.05472148
_cell_length_b                          6.29975601414
_cell_length_c                          11.9412430605
_cell_angle_alpha                       95.7629086298
_cell_angle_beta                        82.6513729509
_cell_angle_gamma                       75.9689503393
_chemical_name_systematic               'Generated by pymatgen'
_symmetry_Int_Tables_number             1
_chemical_formula_structural            V3S4
_chemical_formula_sum                   'V6 S8'
_cell_volume                            219.03777069
_cell_formula_units_Z                   2
loop_
  _symmetry_equiv_pos_site_id
  _symmetry_equiv_pos_as_xyz
   1  'x, y, z'
 
loop_
  _atom_site_type_symbol
  _atom_site_label
  _atom_site_symmetry_multiplicity
  _atom_site_fract_x
  _atom_site_fract_y
  _atom_site_fract_z
  _atom_site_attached_hydrogens
  _atom_site_B_iso_or_equiv
  _atom_site_occupancy
   V  V1  1  0.910004  0.950111  0.229882  0  .  1
   V  V2  1  0.910021  0.450106  0.729852  0  .  1
   V  V3  1  0.000014  0.999920  0.000051  0  .  1
   V  V4  1  -0.000024  0.500082  0.499965  0  .  1
   V  V5  1  0.089975  0.549907  0.270144  0  .  1
   V  V6  1  0.089964  0.049916  0.770155  0  .  1
   S  S7  1  0.338739  0.184137  0.138383  0  .  1
   S  S8  1  0.338751  0.684138  0.638359  0  .  1
   S  S9  1  0.592386  0.687384  0.127845  0  .  1
   S  S10  1  0.592368  0.187388  0.627877  0  .  1
   S  S11  1  0.661268  0.315859  0.361607  0  .  1
   S  S12  1  0.661245  0.815876  0.861634  0  .  1
   S  S13  1  0.407649  0.812587  0.372116  0  .  1
   S  S14  1  0.407641  0.312589  0.872131  0  .  1
 
