#\#CIF1.1
##########################################################################
#               Crystallographic Information Format file 
#               Produced by PyCifRW module
# 
#  This is a CIF file.  CIF has been adopted by the International
#  Union of Crystallography as the standard for data archiving and 
#  transmission.
#
#  For information on this file format, follow the CIF links at
#  http://www.iucr.org
##########################################################################

data_V3Zn2O8
_symmetry_space_group_name_H-M          'P 1'
_cell_length_a                          5.93596182057
_cell_length_b                          5.95037737149
_cell_length_c                          5.95037737149
_cell_angle_alpha                       60.0
_cell_angle_beta                        90.0
_cell_angle_gamma                       120.080367079
_chemical_name_systematic               'Generated by pymatgen'
_symmetry_Int_Tables_number             1
_chemical_formula_structural            V3Zn2O8
_chemical_formula_sum                   'V3 Zn2 O8'
_cell_volume                            148.435059949
_cell_formula_units_Z                   1
loop_
  _symmetry_equiv_pos_site_id
  _symmetry_equiv_pos_as_xyz
   1  'x, y, z'
 
loop_
  _atom_site_type_symbol
  _atom_site_label
  _atom_site_symmetry_multiplicity
  _atom_site_fract_x
  _atom_site_fract_y
  _atom_site_fract_z
  _atom_site_attached_hydrogens
  _atom_site_B_iso_or_equiv
  _atom_site_occupancy
   V  V1  1  0.625000  0.250000  0.125000  0  .  1
   V  V2  1  0.625000  0.250000  0.625000  0  .  1
   V  V3  1  0.625000  0.750000  0.625000  0  .  1
   Zn  Zn4  1  0.981179  0.987453  0.006274  0  .  1
   Zn  Zn5  1  0.268821  0.512547  0.243726  0  .  1
   O  O6  1  0.853958  0.235972  0.382014  0  .  1
   O  O7  1  0.422453  0.260459  0.369770  0  .  1
   O  O8  1  0.827547  0.239541  0.880230  0  .  1
   O  O9  1  0.827547  0.707778  0.411993  0  .  1
   O  O10  1  0.827547  0.707778  0.880230  0  .  1
   O  O11  1  0.396042  0.264028  0.867986  0  .  1
   O  O12  1  0.422453  0.792222  0.369770  0  .  1
   O  O13  1  0.422453  0.792222  0.838007  0  .  1
 
