#\#CIF1.1
##########################################################################
#               Crystallographic Information Format file 
#               Produced by PyCifRW module
# 
#  This is a CIF file.  CIF has been adopted by the International
#  Union of Crystallography as the standard for data archiving and 
#  transmission.
#
#  For information on this file format, follow the CIF links at
#  http://www.iucr.org
##########################################################################

data_V4Cr2O13
_symmetry_space_group_name_H-M          'P 1'
_cell_length_a                          8.59376440062
_cell_length_b                          9.41057001
_cell_length_c                          14.7234139619
_cell_angle_alpha                       90.0
_cell_angle_beta                        104.032208286
_cell_angle_gamma                       90.0
_chemical_name_systematic               'Generated by pymatgen'
_symmetry_Int_Tables_number             1
_chemical_formula_structural            V4Cr2O13
_chemical_formula_sum                   'V16 Cr8 O52'
_cell_volume                            1155.18375286
_cell_formula_units_Z                   4
loop_
  _symmetry_equiv_pos_site_id
  _symmetry_equiv_pos_as_xyz
   1  'x, y, z'
 
loop_
  _atom_site_type_symbol
  _atom_site_label
  _atom_site_symmetry_multiplicity
  _atom_site_fract_x
  _atom_site_fract_y
  _atom_site_fract_z
  _atom_site_attached_hydrogens
  _atom_site_B_iso_or_equiv
  _atom_site_occupancy
   V  V1  1  0.119723  0.241798  0.926581  0  .  1
   V  V2  1  0.285655  0.723394  0.842428  0  .  1
   V  V3  1  0.208336  0.305351  0.661299  0  .  1
   V  V4  1  0.119723  0.258202  0.426581  0  .  1
   V  V5  1  0.508235  0.253848  0.926944  0  .  1
   V  V6  1  0.285655  0.776606  0.342428  0  .  1
   V  V7  1  0.208336  0.194649  0.161299  0  .  1
   V  V8  1  0.491765  0.753848  0.573056  0  .  1
   V  V9  1  0.508235  0.246152  0.426944  0  .  1
   V  V10  1  0.791664  0.805351  0.838701  0  .  1
   V  V11  1  0.714345  0.223394  0.657572  0  .  1
   V  V12  1  0.491765  0.746152  0.073056  0  .  1
   V  V13  1  0.880277  0.741798  0.573419  0  .  1
   V  V14  1  0.791664  0.694649  0.338701  0  .  1
   V  V15  1  0.714345  0.276606  0.157572  0  .  1
   V  V16  1  0.880277  0.758202  0.073419  0  .  1
   Cr  Cr17  1  0.056015  0.002022  0.723748  0  .  1
   Cr  Cr18  1  0.056015  0.497978  0.223748  0  .  1
   Cr  Cr19  1  0.429932  0.997659  0.740224  0  .  1
   Cr  Cr20  1  0.570068  0.497659  0.759776  0  .  1
   Cr  Cr21  1  0.429932  0.502341  0.240224  0  .  1
   Cr  Cr22  1  0.570068  0.002341  0.259777  0  .  1
   Cr  Cr23  1  0.943985  0.502022  0.776252  0  .  1
   Cr  Cr24  1  0.943985  0.997978  0.276252  0  .  1
   O  O25  1  0.992911  0.380711  0.892248  0  .  1
   O  O26  1  0.094359  0.112015  0.844946  0  .  1
   O  O27  1  0.107741  0.641525  0.836791  0  .  1
   O  O28  1  0.100830  0.386029  0.728790  0  .  1
   O  O29  1  0.992911  0.119289  0.392248  0  .  1
   O  O30  1  0.109839  0.331238  0.538626  0  .  1
   O  O31  1  0.318978  0.314210  0.944449  0  .  1
   O  O32  1  0.251888  0.880922  0.772996  0  .  1
   O  O33  1  0.229511  0.117893  0.685020  0  .  1
   O  O34  1  0.094359  0.387985  0.344946  0  .  1
   O  O35  1  0.366062  0.786936  0.960344  0  .  1
   O  O36  1  0.107741  0.858475  0.336791  0  .  1
   O  O37  1  0.100830  0.113971  0.228790  0  .  1
   O  O38  1  0.412842  0.615551  0.804024  0  .  1
   O  O39  1  0.468791  0.108429  0.858496  0  .  1
   O  O40  1  0.398227  0.370509  0.688147  0  .  1
   O  O41  1  0.109839  0.168762  0.038626  0  .  1
   O  O42  1  0.318978  0.185790  0.444449  0  .  1
   O  O43  1  0.251888  0.619078  0.272996  0  .  1
   O  O44  1  0.229511  0.382107  0.185020  0  .  1
   O  O45  1  0.409437  0.885463  0.624016  0  .  1
   O  O46  1  0.366062  0.713064  0.460344  0  .  1
   O  O47  1  0.590563  0.385463  0.875984  0  .  1
   O  O48  1  0.601773  0.870509  0.811853  0  .  1
   O  O49  1  0.531209  0.608429  0.641504  0  .  1
   O  O50  1  0.412842  0.884449  0.304024  0  .  1
   O  O51  1  0.587158  0.115551  0.695976  0  .  1
   O  O52  1  0.468791  0.391571  0.358496  0  .  1
   O  O53  1  0.398227  0.129491  0.188147  0  .  1
   O  O54  1  0.409437  0.614537  0.124016  0  .  1
   O  O55  1  0.633938  0.286936  0.539656  0  .  1
   O  O56  1  0.590563  0.114537  0.375984  0  .  1
   O  O57  1  0.770489  0.617893  0.814980  0  .  1
   O  O58  1  0.748112  0.380922  0.727004  0  .  1
   O  O59  1  0.681022  0.814210  0.555551  0  .  1
   O  O60  1  0.890161  0.831238  0.961374  0  .  1
   O  O61  1  0.601773  0.629491  0.311853  0  .  1
   O  O62  1  0.531209  0.891571  0.141504  0  .  1
   O  O63  1  0.587158  0.384449  0.195976  0  .  1
   O  O64  1  0.899170  0.886029  0.771210  0  .  1
   O  O65  1  0.892259  0.141525  0.663209  0  .  1
   O  O66  1  0.633938  0.213064  0.039656  0  .  1
   O  O67  1  0.905641  0.612015  0.655054  0  .  1
   O  O68  1  0.770489  0.882107  0.314980  0  .  1
   O  O69  1  0.748112  0.119078  0.227004  0  .  1
   O  O70  1  0.681022  0.685790  0.055551  0  .  1
   O  O71  1  0.890161  0.668762  0.461374  0  .  1
   O  O72  1  0.007089  0.880711  0.607752  0  .  1
   O  O73  1  0.899170  0.613971  0.271210  0  .  1
   O  O74  1  0.892259  0.358475  0.163209  0  .  1
   O  O75  1  0.905641  0.887985  0.155054  0  .  1
   O  O76  1  0.007089  0.619289  0.107752  0  .  1
 
