#\#CIF1.1
##########################################################################
#               Crystallographic Information Format file 
#               Produced by PyCifRW module
# 
#  This is a CIF file.  CIF has been adopted by the International
#  Union of Crystallography as the standard for data archiving and 
#  transmission.
#
#  For information on this file format, follow the CIF links at
#  http://www.iucr.org
##########################################################################

data_V4Fe2O13
_symmetry_space_group_name_H-M          'P 1'
_cell_length_a                          8.49427676471
_cell_length_b                          9.58063103
_cell_length_c                          14.8831356669
_cell_angle_alpha                       90.0
_cell_angle_beta                        102.773849324
_cell_angle_gamma                       90.0
_chemical_name_systematic               'Generated by pymatgen'
_symmetry_Int_Tables_number             1
_chemical_formula_structural            V4Fe2O13
_chemical_formula_sum                   'V16 Fe8 O52'
_cell_volume                            1181.22080298
_cell_formula_units_Z                   4
loop_
  _symmetry_equiv_pos_site_id
  _symmetry_equiv_pos_as_xyz
   1  'x, y, z'
 
loop_
  _atom_site_type_symbol
  _atom_site_label
  _atom_site_symmetry_multiplicity
  _atom_site_fract_x
  _atom_site_fract_y
  _atom_site_fract_z
  _atom_site_attached_hydrogens
  _atom_site_B_iso_or_equiv
  _atom_site_occupancy
   V  V1  1  0.254564  0.723715  0.671642  0  .  1
   V  V2  1  0.140630  0.258875  0.323938  0  .  1
   V  V3  1  0.745436  0.276285  0.328358  0  .  1
   V  V4  1  0.859370  0.741125  0.676062  0  .  1
   V  V5  1  0.859370  0.758875  0.176062  0  .  1
   V  V6  1  0.043201  0.209381  0.091844  0  .  1
   V  V7  1  0.956799  0.709381  0.408156  0  .  1
   V  V8  1  0.140630  0.241125  0.823938  0  .  1
   V  V9  1  0.466536  0.712892  0.905382  0  .  1
   V  V10  1  0.043201  0.290619  0.591844  0  .  1
   V  V11  1  0.533464  0.287108  0.094618  0  .  1
   V  V12  1  0.956799  0.790619  0.908156  0  .  1
   V  V13  1  0.745436  0.223715  0.828358  0  .  1
   V  V14  1  0.466536  0.787108  0.405382  0  .  1
   V  V15  1  0.254564  0.776285  0.171642  0  .  1
   V  V16  1  0.533464  0.212892  0.594618  0  .  1
   Fe  Fe17  1  0.306711  0.500842  0.483915  0  .  1
   Fe  Fe18  1  0.190976  0.500471  0.006751  0  .  1
   Fe  Fe19  1  0.809024  0.499529  0.993249  0  .  1
   Fe  Fe20  1  0.693289  0.499158  0.516085  0  .  1
   Fe  Fe21  1  0.809024  0.000471  0.493249  0  .  1
   Fe  Fe22  1  0.306711  0.999158  0.983915  0  .  1
   Fe  Fe23  1  0.190976  0.999529  0.506751  0  .  1
   Fe  Fe24  1  0.693289  0.000842  0.016085  0  .  1
   O  O25  1  0.942117  0.168700  0.814401  0  .  1
   O  O26  1  0.650579  0.635819  0.925281  0  .  1
   O  O27  1  0.140288  0.865472  0.913089  0  .  1
   O  O28  1  0.143114  0.382860  0.524830  0  .  1
   O  O29  1  0.682247  0.389760  0.399627  0  .  1
   O  O30  1  0.610680  0.274385  0.217292  0  .  1
   O  O31  1  0.942117  0.331300  0.314401  0  .  1
   O  O32  1  0.767200  0.384018  0.876955  0  .  1
   O  O33  1  0.343056  0.883245  0.456168  0  .  1
   O  O34  1  0.840246  0.885326  0.609273  0  .  1
   O  O35  1  0.159754  0.114674  0.390727  0  .  1
   O  O36  1  0.343056  0.616755  0.956168  0  .  1
   O  O37  1  0.841348  0.787227  0.790496  0  .  1
   O  O38  1  0.140288  0.634528  0.413089  0  .  1
   O  O39  1  0.389320  0.774385  0.282708  0  .  1
   O  O40  1  0.317753  0.889760  0.100373  0  .  1
   O  O41  1  0.158652  0.287227  0.709504  0  .  1
   O  O42  1  0.610680  0.225615  0.717292  0  .  1
   O  O43  1  0.507846  0.384610  0.546827  0  .  1
   O  O44  1  0.656944  0.116755  0.543832  0  .  1
   O  O45  1  0.057883  0.668700  0.685599  0  .  1
   O  O46  1  0.057883  0.831300  0.185599  0  .  1
   O  O47  1  0.841348  0.712773  0.290496  0  .  1
   O  O48  1  0.279168  0.381425  0.370707  0  .  1
   O  O49  1  0.143114  0.117140  0.024830  0  .  1
   O  O50  1  0.840246  0.614674  0.109273  0  .  1
   O  O51  1  0.856886  0.617140  0.475170  0  .  1
   O  O52  1  0.010050  0.382823  0.046894  0  .  1
   O  O53  1  0.349421  0.135819  0.574719  0  .  1
   O  O54  1  0.492154  0.884610  0.953173  0  .  1
   O  O55  1  0.767200  0.115982  0.376955  0  .  1
   O  O56  1  0.989950  0.882823  0.453106  0  .  1
   O  O57  1  0.010050  0.117177  0.546894  0  .  1
   O  O58  1  0.317753  0.610240  0.600373  0  .  1
   O  O59  1  0.279168  0.118575  0.870707  0  .  1
   O  O60  1  0.159754  0.385326  0.890727  0  .  1
   O  O61  1  0.989950  0.617177  0.953106  0  .  1
   O  O62  1  0.232800  0.884018  0.623045  0  .  1
   O  O63  1  0.507846  0.115390  0.046827  0  .  1
   O  O64  1  0.656944  0.383245  0.043832  0  .  1
   O  O65  1  0.650579  0.864181  0.425281  0  .  1
   O  O66  1  0.389320  0.725615  0.782708  0  .  1
   O  O67  1  0.856886  0.882860  0.975170  0  .  1
   O  O68  1  0.720832  0.618575  0.629293  0  .  1
   O  O69  1  0.492154  0.615390  0.453173  0  .  1
   O  O70  1  0.158652  0.212773  0.209504  0  .  1
   O  O71  1  0.859712  0.365472  0.586911  0  .  1
   O  O72  1  0.720832  0.881425  0.129293  0  .  1
   O  O73  1  0.859712  0.134528  0.086911  0  .  1
   O  O74  1  0.232800  0.615982  0.123045  0  .  1
   O  O75  1  0.682247  0.110240  0.899627  0  .  1
   O  O76  1  0.349421  0.364181  0.074719  0  .  1
 
