#\#CIF1.1
##########################################################################
#               Crystallographic Information Format file 
#               Produced by PyCifRW module
# 
#  This is a CIF file.  CIF has been adopted by the International
#  Union of Crystallography as the standard for data archiving and 
#  transmission.
#
#  For information on this file format, follow the CIF links at
#  http://www.iucr.org
##########################################################################

data_V4O7
_symmetry_space_group_name_H-M          'P 1'
_cell_length_a                          5.65944625488
_cell_length_b                          6.79766036504
_cell_length_c                          7.7954023628
_cell_angle_alpha                       63.3070833184
_cell_angle_beta                        91.6786129877
_cell_angle_gamma                       85.913450255
_chemical_name_systematic               'Generated by pymatgen'
_symmetry_Int_Tables_number             1
_chemical_formula_structural            V4O7
_chemical_formula_sum                   'V8 O14'
_cell_volume                            266.621588935
_cell_formula_units_Z                   2
loop_
  _symmetry_equiv_pos_site_id
  _symmetry_equiv_pos_as_xyz
   1  'x, y, z'
 
loop_
  _atom_site_type_symbol
  _atom_site_label
  _atom_site_symmetry_multiplicity
  _atom_site_fract_x
  _atom_site_fract_y
  _atom_site_fract_z
  _atom_site_attached_hydrogens
  _atom_site_B_iso_or_equiv
  _atom_site_occupancy
   V  V1  1  0.398382  0.614343  0.082786  0  .  1
   V  V2  1  0.601618  0.385657  0.917214  0  .  1
   V  V3  1  0.593174  0.007658  0.779989  0  .  1
   V  V4  1  0.406826  0.992342  0.220011  0  .  1
   V  V5  1  0.240359  0.418971  0.544698  0  .  1
   V  V6  1  0.759641  0.581029  0.455302  0  .  1
   V  V7  1  0.857226  0.170776  0.311655  0  .  1
   V  V8  1  0.142774  0.829224  0.688345  0  .  1
   O  O9  1  0.046447  0.578936  0.629173  0  .  1
   O  O10  1  0.953553  0.421064  0.370827  0  .  1
   O  O11  1  0.292191  0.104950  0.642899  0  .  1
   O  O12  1  0.707809  0.895050  0.357101  0  .  1
   O  O13  1  0.890960  0.272898  0.043306  0  .  1
   O  O14  1  0.109040  0.727102  0.956694  0  .  1
   O  O15  1  0.504382  0.308508  0.199814  0  .  1
   O  O16  1  0.495618  0.691492  0.800186  0  .  1
   O  O17  1  0.817167  0.018646  0.624092  0  .  1
   O  O18  1  0.182833  0.981354  0.375908  0  .  1
   O  O19  1  0.400976  0.633180  0.334709  0  .  1
   O  O20  1  0.599024  0.366820  0.665291  0  .  1
   O  O21  1  0.384972  0.172410  0.953997  0  .  1
   O  O22  1  0.615028  0.827590  0.046003  0  .  1
 
