#\#CIF1.1
##########################################################################
#               Crystallographic Information Format file 
#               Produced by PyCifRW module
# 
#  This is a CIF file.  CIF has been adopted by the International
#  Union of Crystallography as the standard for data archiving and 
#  transmission.
#
#  For information on this file format, follow the CIF links at
#  http://www.iucr.org
##########################################################################

data_V4O9
_symmetry_space_group_name_H-M          'P 1'
_cell_length_a                          3.69790899
_cell_length_b                          9.62821965
_cell_length_c                          18.12095095
_cell_angle_alpha                       90.0
_cell_angle_beta                        90.0
_cell_angle_gamma                       90.0
_chemical_name_systematic               'Generated by pymatgen'
_symmetry_Int_Tables_number             1
_chemical_formula_structural            V4O9
_chemical_formula_sum                   'V16 O36'
_cell_volume                            645.183411516
_cell_formula_units_Z                   4
loop_
  _symmetry_equiv_pos_site_id
  _symmetry_equiv_pos_as_xyz
   1  'x, y, z'
 
loop_
  _atom_site_type_symbol
  _atom_site_label
  _atom_site_symmetry_multiplicity
  _atom_site_fract_x
  _atom_site_fract_y
  _atom_site_fract_z
  _atom_site_attached_hydrogens
  _atom_site_B_iso_or_equiv
  _atom_site_occupancy
   O  O1  1  0.250000  0.186425  0.739686  0  .  1
   O  O2  1  0.750001  0.813574  0.260313  0  .  1
   O  O3  1  0.750001  0.686426  0.760314  0  .  1
   O  O4  1  0.250000  0.313575  0.239687  0  .  1
   O  O5  1  0.250000  0.918315  0.664464  0  .  1
   O  O6  1  0.750001  0.081684  0.335537  0  .  1
   O  O7  1  0.750001  0.418316  0.835536  0  .  1
   O  O8  1  0.250000  0.581685  0.164464  0  .  1
   O  O9  1  0.250000  0.147978  0.896606  0  .  1
   O  O10  1  0.750001  0.852022  0.103394  0  .  1
   O  O11  1  0.750001  0.647978  0.603394  0  .  1
   O  O12  1  0.250000  0.352021  0.396606  0  .  1
   O  O13  1  0.250000  0.402151  0.544981  0  .  1
   O  O14  1  0.750001  0.597848  0.455019  0  .  1
   O  O15  1  0.750001  0.902152  0.955019  0  .  1
   O  O16  1  0.250000  0.097849  0.044981  0  .  1
   O  O17  1  0.750001  0.280353  0.977222  0  .  1
   O  O18  1  0.250000  0.719647  0.022777  0  .  1
   O  O19  1  0.250000  0.780352  0.522778  0  .  1
   O  O20  1  0.750001  0.219648  0.477223  0  .  1
   O  O21  1  0.750001  0.553111  0.049797  0  .  1
   O  O22  1  0.250000  0.446889  0.950203  0  .  1
   O  O23  1  0.250000  0.053110  0.450203  0  .  1
   O  O24  1  0.750001  0.946890  0.549797  0  .  1
   O  O25  1  0.750001  0.146030  0.155322  0  .  1
   O  O26  1  0.250000  0.853969  0.844677  0  .  1
   O  O27  1  0.250000  0.154924  0.585776  0  .  1
   O  O28  1  0.750001  0.353969  0.655323  0  .  1
   O  O29  1  0.750001  0.507146  0.298034  0  .  1
   O  O30  1  0.250000  0.492855  0.701966  0  .  1
   O  O31  1  0.250000  0.007145  0.201966  0  .  1
   O  O32  1  0.750001  0.992854  0.798034  0  .  1
   O  O33  1  0.250000  0.345076  0.085776  0  .  1
   O  O34  1  0.750001  0.654923  0.914224  0  .  1
   O  O35  1  0.750001  0.845077  0.414224  0  .  1
   O  O36  1  0.250000  0.646031  0.344677  0  .  1
   V  V37  1  0.250000  0.047814  0.816495  0  .  1
   V  V38  1  0.750001  0.952187  0.183505  0  .  1
   V  V39  1  0.750001  0.547813  0.683505  0  .  1
   V  V40  1  0.250000  0.452187  0.316495  0  .  1
   V  V41  1  0.250000  0.299498  0.667200  0  .  1
   V  V42  1  0.750001  0.700503  0.332800  0  .  1
   V  V43  1  0.750001  0.799497  0.832800  0  .  1
   V  V44  1  0.250000  0.200501  0.167200  0  .  1
   V  V45  1  0.250000  0.965787  0.579075  0  .  1
   V  V46  1  0.750001  0.034213  0.420924  0  .  1
   V  V47  1  0.750001  0.465787  0.920925  0  .  1
   V  V48  1  0.250000  0.534212  0.079075  0  .  1
   V  V49  1  0.250000  0.267762  0.489555  0  .  1
   V  V50  1  0.750001  0.732239  0.510445  0  .  1
   V  V51  1  0.750001  0.767761  0.010445  0  .  1
   V  V52  1  0.250000  0.232238  0.989555  0  .  1
 
