#\#CIF1.1
##########################################################################
#               Crystallographic Information Format file 
#               Produced by PyCifRW module
# 
#  This is a CIF file.  CIF has been adopted by the International
#  Union of Crystallography as the standard for data archiving and 
#  transmission.
#
#  For information on this file format, follow the CIF links at
#  http://www.iucr.org
##########################################################################

data_V5CoO12
_symmetry_space_group_name_H-M          'P 1'
_cell_length_a                          6.79555306368
_cell_length_b                          6.79555268726
_cell_length_c                          5.85730794742
_cell_angle_alpha                       75.1820499351
_cell_angle_beta                        104.817951145
_cell_angle_gamma                       95.6053105857
_chemical_name_systematic               'Generated by pymatgen'
_symmetry_Int_Tables_number             1
_chemical_formula_structural            V5CoO12
_chemical_formula_sum                   'V5 Co1 O12'
_cell_volume                            252.645168295
_cell_formula_units_Z                   1
loop_
  _symmetry_equiv_pos_site_id
  _symmetry_equiv_pos_as_xyz
   1  'x, y, z'
 
loop_
  _atom_site_type_symbol
  _atom_site_label
  _atom_site_symmetry_multiplicity
  _atom_site_fract_x
  _atom_site_fract_y
  _atom_site_fract_z
  _atom_site_attached_hydrogens
  _atom_site_B_iso_or_equiv
  _atom_site_occupancy
   V  V1  1  0.204876  0.610936  0.758081  0  .  1
   V  V2  1  0.391058  0.794561  0.263046  0  .  1
   V  V3  1  0.610936  0.204876  0.741919  0  .  1
   V  V4  1  0.794561  0.391058  0.236954  0  .  1
   V  V5  1  0.916828  0.916828  0.250000  0  .  1
   Co  Co6  1  0.087730  0.087730  0.750000  0  .  1
   O  O7  1  0.035879  0.808932  0.632054  0  .  1
   O  O8  1  0.088354  0.378517  0.777878  0  .  1
   O  O9  1  0.189643  0.964054  0.149745  0  .  1
   O  O10  1  0.371423  0.640509  0.559878  0  .  1
   O  O11  1  0.378517  0.088354  0.722122  0  .  1
   O  O12  1  0.347714  0.632713  0.051729  0  .  1
   O  O13  1  0.640509  0.371423  0.940122  0  .  1
   O  O14  1  0.632475  0.903799  0.284528  0  .  1
   O  O15  1  0.632713  0.347714  0.448271  0  .  1
   O  O16  1  0.808932  0.035879  0.867946  0  .  1
   O  O17  1  0.903799  0.632475  0.215472  0  .  1
   O  O18  1  0.964054  0.189643  0.350255  0  .  1
 
