#\#CIF1.1
##########################################################################
#               Crystallographic Information Format file 
#               Produced by PyCifRW module
# 
#  This is a CIF file.  CIF has been adopted by the International
#  Union of Crystallography as the standard for data archiving and 
#  transmission.
#
#  For information on this file format, follow the CIF links at
#  http://www.iucr.org
##########################################################################

data_V5CrO12
_symmetry_space_group_name_H-M          'P 1'
_cell_length_a                          6.86336526201
_cell_length_b                          6.86336493869
_cell_length_c                          5.68672270216
_cell_angle_alpha                       75.1358447158
_cell_angle_beta                        104.864157816
_cell_angle_gamma                       95.5587901977
_chemical_name_systematic               'Generated by pymatgen'
_symmetry_Int_Tables_number             1
_chemical_formula_structural            V5CrO12
_chemical_formula_sum                   'V5 Cr1 O12'
_cell_volume                            250.111015538
_cell_formula_units_Z                   1
loop_
  _symmetry_equiv_pos_site_id
  _symmetry_equiv_pos_as_xyz
   1  'x, y, z'
 
loop_
  _atom_site_type_symbol
  _atom_site_label
  _atom_site_symmetry_multiplicity
  _atom_site_fract_x
  _atom_site_fract_y
  _atom_site_fract_z
  _atom_site_attached_hydrogens
  _atom_site_B_iso_or_equiv
  _atom_site_occupancy
   V  V1  1  0.917924  0.917924  0.250000  0  .  1
   V  V2  1  0.205115  0.607025  0.751111  0  .  1
   V  V3  1  0.396717  0.808555  0.240683  0  .  1
   V  V4  1  0.607025  0.205115  0.748889  0  .  1
   V  V5  1  0.808555  0.396717  0.259317  0  .  1
   Cr  Cr6  1  0.083884  0.083884  0.750000  0  .  1
   O  O7  1  0.040112  0.811230  0.641536  0  .  1
   O  O8  1  0.083372  0.373228  0.756791  0  .  1
   O  O9  1  0.176512  0.967018  0.126478  0  .  1
   O  O10  1  0.369875  0.652930  0.555966  0  .  1
   O  O11  1  0.373228  0.083372  0.743209  0  .  1
   O  O12  1  0.341085  0.616696  0.052764  0  .  1
   O  O13  1  0.652930  0.369875  0.944034  0  .  1
   O  O14  1  0.640385  0.908338  0.286269  0  .  1
   O  O15  1  0.616696  0.341085  0.447236  0  .  1
   O  O16  1  0.811230  0.040112  0.858464  0  .  1
   O  O17  1  0.908338  0.640385  0.213731  0  .  1
   O  O18  1  0.967018  0.176512  0.373522  0  .  1
 
