#\#CIF1.1
##########################################################################
#               Crystallographic Information Format file 
#               Produced by PyCifRW module
# 
#  This is a CIF file.  CIF has been adopted by the International
#  Union of Crystallography as the standard for data archiving and 
#  transmission.
#
#  For information on this file format, follow the CIF links at
#  http://www.iucr.org
##########################################################################

data_V5CuO12
_symmetry_space_group_name_H-M          'P 1'
_cell_length_a                          6.75536764341
_cell_length_b                          6.75536768672
_cell_length_c                          5.91215873101
_cell_angle_alpha                       75.5437043391
_cell_angle_beta                        104.456298528
_cell_angle_gamma                       95.6498336919
_chemical_name_systematic               'Generated by pymatgen'
_symmetry_Int_Tables_number             1
_chemical_formula_structural            V5CuO12
_chemical_formula_sum                   'V5 Cu1 O12'
_cell_volume                            252.799222355
_cell_formula_units_Z                   1
loop_
  _symmetry_equiv_pos_site_id
  _symmetry_equiv_pos_as_xyz
   1  'x, y, z'
 
loop_
  _atom_site_type_symbol
  _atom_site_label
  _atom_site_symmetry_multiplicity
  _atom_site_fract_x
  _atom_site_fract_y
  _atom_site_fract_z
  _atom_site_attached_hydrogens
  _atom_site_B_iso_or_equiv
  _atom_site_occupancy
   V  V1  1  0.916460  0.916460  0.250000  0  .  1
   V  V2  1  0.203327  0.613243  0.756597  0  .  1
   V  V3  1  0.392181  0.788011  0.270379  0  .  1
   V  V4  1  0.613243  0.203327  0.743403  0  .  1
   V  V5  1  0.788011  0.392181  0.229621  0  .  1
   Cu  Cu6  1  0.093427  0.093427  0.750000  0  .  1
   O  O7  1  0.034174  0.809390  0.621835  0  .  1
   O  O8  1  0.084354  0.381643  0.781782  0  .  1
   O  O9  1  0.198795  0.958925  0.177172  0  .  1
   O  O10  1  0.372218  0.632239  0.555906  0  .  1
   O  O11  1  0.381643  0.084354  0.718218  0  .  1
   O  O12  1  0.347237  0.638616  0.053441  0  .  1
   O  O13  1  0.632239  0.372218  0.944094  0  .  1
   O  O14  1  0.631325  0.904437  0.290518  0  .  1
   O  O15  1  0.638616  0.347237  0.446559  0  .  1
   O  O16  1  0.809390  0.034174  0.878165  0  .  1
   O  O17  1  0.904437  0.631325  0.209482  0  .  1
   O  O18  1  0.958925  0.198795  0.322828  0  .  1
 
