#\#CIF1.1
##########################################################################
#               Crystallographic Information Format file 
#               Produced by PyCifRW module
# 
#  This is a CIF file.  CIF has been adopted by the International
#  Union of Crystallography as the standard for data archiving and 
#  transmission.
#
#  For information on this file format, follow the CIF links at
#  http://www.iucr.org
##########################################################################

data_V5Fe3O16
_symmetry_space_group_name_H-M          'P 1'
_cell_length_a                          4.52903188696
_cell_length_b                          4.93098202204
_cell_length_c                          11.1076642123
_cell_angle_alpha                       89.9445829857
_cell_angle_beta                        89.8373431278
_cell_angle_gamma                       90.4508838973
_chemical_name_systematic               'Generated by pymatgen'
_symmetry_Int_Tables_number             1
_chemical_formula_structural            V5Fe3O16
_chemical_formula_sum                   'V5 Fe3 O16'
_cell_volume                            248.053940045
_cell_formula_units_Z                   1
loop_
  _symmetry_equiv_pos_site_id
  _symmetry_equiv_pos_as_xyz
   1  'x, y, z'
 
loop_
  _atom_site_type_symbol
  _atom_site_label
  _atom_site_symmetry_multiplicity
  _atom_site_fract_x
  _atom_site_fract_y
  _atom_site_fract_z
  _atom_site_attached_hydrogens
  _atom_site_B_iso_or_equiv
  _atom_site_occupancy
   V  V1  1  0.997216  0.741814  0.413565  0  .  1
   V  V2  1  0.996969  0.750752  0.915504  0  .  1
   V  V3  1  0.502705  0.241564  0.334607  0  .  1
   V  V4  1  0.497759  0.751430  0.660648  0  .  1
   V  V5  1  0.003968  0.250974  0.084533  0  .  1
   Fe  Fe6  1  0.498996  0.249813  0.833792  0  .  1
   Fe  Fe7  1  0.498775  0.751305  0.166183  0  .  1
   Fe  Fe8  1  0.002384  0.251294  0.580419  0  .  1
   O  O9  1  0.220930  0.933683  0.056863  0  .  1
   O  O10  1  0.236930  0.904625  0.561783  0  .  1
   O  O11  1  0.219262  0.432386  0.944873  0  .  1
   O  O12  1  0.226923  0.417240  0.436552  0  .  1
   O  O13  1  0.272641  0.916140  0.312465  0  .  1
   O  O14  1  0.259061  0.903123  0.812904  0  .  1
   O  O15  1  0.263795  0.400768  0.188238  0  .  1
   O  O16  1  0.284554  0.436427  0.692016  0  .  1
   O  O17  1  0.730122  0.588398  0.315372  0  .  1
   O  O18  1  0.741352  0.596486  0.813582  0  .  1
   O  O19  1  0.738179  0.099500  0.186629  0  .  1
   O  O20  1  0.713685  0.064380  0.690584  0  .  1
   O  O21  1  0.781202  0.567803  0.057815  0  .  1
   O  O22  1  0.761197  0.595495  0.563283  0  .  1
   O  O23  1  0.770431  0.088008  0.433869  0  .  1
   O  O24  1  0.780964  0.066594  0.943921  0  .  1
 
