#\#CIF1.1
##########################################################################
#               Crystallographic Information Format file 
#               Produced by PyCifRW module
# 
#  This is a CIF file.  CIF has been adopted by the International
#  Union of Crystallography as the standard for data archiving and 
#  transmission.
#
#  For information on this file format, follow the CIF links at
#  http://www.iucr.org
##########################################################################

data_V5O9
_symmetry_space_group_name_H-M          'P 1'
_cell_length_a                          5.62930637835
_cell_length_b                          7.10963705194
_cell_length_c                          8.58128400935
_cell_angle_alpha                       69.7977041235
_cell_angle_beta                        74.4641190293
_cell_angle_gamma                       70.9588058299
_chemical_name_systematic               'Generated by pymatgen'
_symmetry_Int_Tables_number             1
_chemical_formula_structural            V5O9
_chemical_formula_sum                   'V10 O18'
_cell_volume                            299.981062935
_cell_formula_units_Z                   2
loop_
  _symmetry_equiv_pos_site_id
  _symmetry_equiv_pos_as_xyz
   1  'x, y, z'
 
loop_
  _atom_site_type_symbol
  _atom_site_label
  _atom_site_symmetry_multiplicity
  _atom_site_fract_x
  _atom_site_fract_y
  _atom_site_fract_z
  _atom_site_attached_hydrogens
  _atom_site_B_iso_or_equiv
  _atom_site_occupancy
   V  V1  1  0.719692  0.824774  0.417652  0  .  1
   V  V2  1  0.282415  0.175662  0.574890  0  .  1
   V  V3  1  0.724987  0.316543  0.428046  0  .  1
   V  V4  1  0.273745  0.679938  0.577094  0  .  1
   V  V5  1  0.360183  0.652193  0.214372  0  .  1
   V  V6  1  0.653465  0.351014  0.791000  0  .  1
   V  V7  1  0.340771  0.171479  0.198779  0  .  1
   V  V8  1  0.638073  0.840759  0.802287  0  .  1
   V  V9  1  0.002761  0.496020  0.003881  0  .  1
   V  V10  1  0.992317  0.002098  0.995594  0  .  1
   O  O11  1  0.054807  0.203846  0.415669  0  .  1
   O  O12  1  0.940918  0.792604  0.578618  0  .  1
   O  O13  1  0.720511  0.507298  0.204725  0  .  1
   O  O14  1  0.297846  0.483799  0.797763  0  .  1
   O  O15  1  0.617562  0.159785  0.015708  0  .  1
   O  O16  1  0.373810  0.850073  0.971217  0  .  1
   O  O17  1  0.907329  0.805240  0.915729  0  .  1
   O  O18  1  0.094278  0.182549  0.083398  0  .  1
   O  O19  1  0.264156  0.458936  0.143863  0  .  1
   O  O20  1  0.745645  0.538899  0.861643  0  .  1
   O  O21  1  0.320938  0.466600  0.463396  0  .  1
   O  O22  1  0.684665  0.535085  0.540156  0  .  1
   O  O23  1  0.003890  0.198804  0.758890  0  .  1
   O  O24  1  0.971259  0.809522  0.245826  0  .  1
   O  O25  1  0.580634  0.132802  0.365290  0  .  1
   O  O26  1  0.425420  0.862220  0.631405  0  .  1
   O  O27  1  0.408761  0.853256  0.328084  0  .  1
   O  O28  1  0.599162  0.148203  0.675024  0  .  1
 
