#\#CIF1.1
##########################################################################
#               Crystallographic Information Format file 
#               Produced by PyCifRW module
# 
#  This is a CIF file.  CIF has been adopted by the International
#  Union of Crystallography as the standard for data archiving and 
#  transmission.
#
#  For information on this file format, follow the CIF links at
#  http://www.iucr.org
##########################################################################

data_V5S4
_symmetry_space_group_name_H-M          'P 1'
_cell_length_a                          3.15671049395
_cell_length_b                          6.55092959583
_cell_length_c                          12.7150134945
_cell_angle_alpha                       89.9938739757
_cell_angle_beta                        90.0000071666
_cell_angle_gamma                       103.941794736
_chemical_name_systematic               'Generated by pymatgen'
_symmetry_Int_Tables_number             1
_chemical_formula_structural            V5S4
_chemical_formula_sum                   'V10 S8'
_cell_volume                            255.192784053
_cell_formula_units_Z                   2
loop_
  _symmetry_equiv_pos_site_id
  _symmetry_equiv_pos_as_xyz
   1  'x, y, z'
 
loop_
  _atom_site_type_symbol
  _atom_site_label
  _atom_site_symmetry_multiplicity
  _atom_site_fract_x
  _atom_site_fract_y
  _atom_site_fract_z
  _atom_site_attached_hydrogens
  _atom_site_B_iso_or_equiv
  _atom_site_occupancy
   V  V1  1  0.160531  0.321061  0.460451  0  .  1
   V  V2  1  0.660536  0.321072  0.960451  0  .  1
   V  V3  1  0.539533  0.079066  0.160520  0  .  1
   V  V4  1  0.039534  0.079067  0.660532  0  .  1
   V  V5  1  -0.000005  -0.000010  0.000001  0  .  1
   V  V6  1  0.500011  0.000023  0.500004  0  .  1
   V  V7  1  0.339458  0.678916  0.039557  0  .  1
   V  V8  1  0.839467  0.678934  0.539554  0  .  1
   V  V9  1  0.960474  0.920948  0.339460  0  .  1
   V  V10  1  0.460463  0.920925  0.839463  0  .  1
   S  S11  1  0.167671  0.335343  0.103900  0  .  1
   S  S12  1  0.667681  0.335362  0.603895  0  .  1
   S  S13  1  0.896096  0.792193  0.167690  0  .  1
   S  S14  1  0.396106  0.792212  0.667680  0  .  1
   S  S15  1  0.332337  0.664675  0.396121  0  .  1
   S  S16  1  0.832339  0.664677  0.896105  0  .  1
   S  S17  1  0.603885  0.207769  0.332305  0  .  1
   S  S18  1  0.103883  0.207767  0.832311  0  .  1
 
