#\#CIF1.1
##########################################################################
#               Crystallographic Information Format file 
#               Produced by PyCifRW module
# 
#  This is a CIF file.  CIF has been adopted by the International
#  Union of Crystallography as the standard for data archiving and 
#  transmission.
#
#  For information on this file format, follow the CIF links at
#  http://www.iucr.org
##########################################################################

data_V5S8
_symmetry_space_group_name_H-M          'P 1'
_cell_length_a                          6.6009910275
_cell_length_b                          10.3428048063
_cell_length_c                          6.56346124957
_cell_angle_alpha                       82.0270271513
_cell_angle_beta                        76.4082310297
_cell_angle_gamma                       81.582358733
_chemical_name_systematic               'Generated by pymatgen'
_symmetry_Int_Tables_number             1
_chemical_formula_structural            V5S8
_chemical_formula_sum                   'V10 S16'
_cell_volume                            428.321600053
_cell_formula_units_Z                   2
loop_
  _symmetry_equiv_pos_site_id
  _symmetry_equiv_pos_as_xyz
   1  'x, y, z'
 
loop_
  _atom_site_type_symbol
  _atom_site_label
  _atom_site_symmetry_multiplicity
  _atom_site_fract_x
  _atom_site_fract_y
  _atom_site_fract_z
  _atom_site_attached_hydrogens
  _atom_site_B_iso_or_equiv
  _atom_site_occupancy
   V  V1  1  0.999607  0.999525  0.000245  0  .  1
   V  V2  1  0.500146  0.500436  0.499751  0  .  1
   V  V3  1  0.103827  0.396373  0.103134  0  .  1
   V  V4  1  0.603210  0.896312  0.602868  0  .  1
   V  V5  1  0.396653  0.103383  0.396725  0  .  1
   V  V6  1  0.896883  0.603790  0.896839  0  .  1
   V  V7  1  0.390051  0.117782  0.842261  0  .  1
   V  V8  1  0.891491  0.617373  0.341920  0  .  1
   V  V9  1  0.110016  0.382318  0.657758  0  .  1
   V  V10  1  0.608483  0.882724  0.158353  0  .  1
   S  S11  1  0.364086  0.346847  0.329471  0  .  1
   S  S12  1  0.863577  0.846873  0.829709  0  .  1
   S  S13  1  0.136053  0.153046  0.170596  0  .  1
   S  S14  1  0.636155  0.653153  0.670447  0  .  1
   S  S15  1  0.668966  0.111441  0.554163  0  .  1
   S  S16  1  0.169570  0.611620  0.054198  0  .  1
   S  S17  1  0.830957  0.388409  0.945932  0  .  1
   S  S18  1  0.330292  0.888285  0.445884  0  .  1
   S  S19  1  0.395781  0.356404  0.816795  0  .  1
   S  S20  1  0.895398  0.856534  0.316389  0  .  1
   S  S21  1  0.854493  0.394429  0.433068  0  .  1
   S  S22  1  0.355311  0.894025  0.932456  0  .  1
   S  S23  1  0.645459  0.105547  0.066981  0  .  1
   S  S24  1  0.144726  0.606131  0.567505  0  .  1
   S  S25  1  0.104214  0.143683  0.683031  0  .  1
   S  S26  1  0.604595  0.643556  0.183518  0  .  1
 
