#\#CIF1.1
##########################################################################
#               Crystallographic Information Format file 
#               Produced by PyCifRW module
# 
#  This is a CIF file.  CIF has been adopted by the International
#  Union of Crystallography as the standard for data archiving and 
#  transmission.
#
#  For information on this file format, follow the CIF links at
#  http://www.iucr.org
##########################################################################

data_V6Cu2O15
_symmetry_space_group_name_H-M          'P 1'
_cell_length_a                          7.89169667877
_cell_length_b                          3.70227980587
_cell_length_c                          10.1962291462
_cell_angle_alpha                       90.3763818461
_cell_angle_beta                        105.60919072
_cell_angle_gamma                       76.1958933037
_chemical_name_systematic               'Generated by pymatgen'
_symmetry_Int_Tables_number             1
_chemical_formula_structural            V6Cu2O15
_chemical_formula_sum                   'V6 Cu2 O15'
_cell_volume                            278.102513954
_cell_formula_units_Z                   1
loop_
  _symmetry_equiv_pos_site_id
  _symmetry_equiv_pos_as_xyz
   1  'x, y, z'
 
loop_
  _atom_site_type_symbol
  _atom_site_label
  _atom_site_symmetry_multiplicity
  _atom_site_fract_x
  _atom_site_fract_y
  _atom_site_fract_z
  _atom_site_attached_hydrogens
  _atom_site_B_iso_or_equiv
  _atom_site_occupancy
   V  V1  1  0.337459  0.330567  0.911605  0  .  1
   V  V2  1  0.225546  0.889376  0.118268  0  .  1
   V  V3  1  0.427605  0.287348  0.593847  0  .  1
   V  V4  1  0.572395  0.712652  0.406153  0  .  1
   V  V5  1  0.774454  0.110624  0.881732  0  .  1
   V  V6  1  0.662541  0.669433  0.088395  0  .  1
   Cu  Cu7  1  0.060972  0.421620  0.354332  0  .  1
   Cu  Cu8  1  0.939028  0.578380  0.645668  0  .  1
   O  O9  1  0.134588  0.432951  0.795914  0  .  1
   O  O10  1  0.000000  0.000000  0.000000  0  .  1
   O  O11  1  0.198930  0.399176  0.534739  0  .  1
   O  O12  1  0.379463  0.810292  0.963364  0  .  1
   O  O13  1  0.189830  0.918526  0.273709  0  .  1
   O  O14  1  0.482146  0.259498  0.774044  0  .  1
   O  O15  1  0.261673  0.370708  0.086073  0  .  1
   O  O16  1  0.483798  0.758751  0.571523  0  .  1
   O  O17  1  0.516202  0.241249  0.428477  0  .  1
   O  O18  1  0.738327  0.629292  0.913927  0  .  1
   O  O19  1  0.517854  0.740502  0.225956  0  .  1
   O  O20  1  0.810170  0.081474  0.726291  0  .  1
   O  O21  1  0.620537  0.189708  0.036636  0  .  1
   O  O22  1  0.801070  0.600824  0.465261  0  .  1
   O  O23  1  0.865412  0.567048  0.204086  0  .  1
 
