#\#CIF1.1
##########################################################################
#               Crystallographic Information Format file 
#               Produced by PyCifRW module
# 
#  This is a CIF file.  CIF has been adopted by the International
#  Union of Crystallography as the standard for data archiving and 
#  transmission.
#
#  For information on this file format, follow the CIF links at
#  http://www.iucr.org
##########################################################################

data_V6CuO15
_symmetry_space_group_name_H-M          'P 1'
_cell_length_a                          7.92697714667
_cell_length_b                          7.37323401205
_cell_length_c                          10.272774274
_cell_angle_alpha                       89.9937563836
_cell_angle_beta                        106.676283857
_cell_angle_gamma                       76.5761016344
_chemical_name_systematic               'Generated by pymatgen'
_symmetry_Int_Tables_number             1
_chemical_formula_structural            V6CuO15
_chemical_formula_sum                   'V12 Cu2 O30'
_cell_volume                            558.014313899
_cell_formula_units_Z                   2
loop_
  _symmetry_equiv_pos_site_id
  _symmetry_equiv_pos_as_xyz
   1  'x, y, z'
 
loop_
  _atom_site_type_symbol
  _atom_site_label
  _atom_site_symmetry_multiplicity
  _atom_site_fract_x
  _atom_site_fract_y
  _atom_site_fract_z
  _atom_site_attached_hydrogens
  _atom_site_B_iso_or_equiv
  _atom_site_occupancy
   V  V1  1  0.334667  0.166516  0.908849  0  .  1
   V  V2  1  0.329760  0.666362  0.902655  0  .  1
   V  V3  1  0.225248  0.941487  0.119648  0  .  1
   V  V4  1  0.229066  0.442264  0.118143  0  .  1
   V  V5  1  0.431457  0.644424  0.594001  0  .  1
   V  V6  1  0.424091  0.144098  0.592864  0  .  1
   V  V7  1  0.567873  0.358101  0.405940  0  .  1
   V  V8  1  0.576733  0.857562  0.407290  0  .  1
   V  V9  1  0.774800  0.554057  0.882430  0  .  1
   V  V10  1  0.770708  0.056580  0.879611  0  .  1
   V  V11  1  0.670561  0.333005  0.096904  0  .  1
   V  V12  1  0.664574  0.833266  0.091186  0  .  1
   Cu  Cu13  1  0.046120  0.790072  0.367916  0  .  1
   Cu  Cu14  1  0.953389  0.312040  0.632107  0  .  1
   O  O15  1  0.132287  0.718048  0.791479  0  .  1
   O  O16  1  0.131623  0.220472  0.791735  0  .  1
   O  O17  1  0.206622  0.705776  0.536089  0  .  1
   O  O18  1  0.203293  0.200867  0.542977  0  .  1
   O  O19  1  0.381246  0.896977  0.958069  0  .  1
   O  O20  1  0.370466  0.415313  0.952549  0  .  1
   O  O21  1  0.999637  0.500026  0.999039  0  .  1
   O  O22  1  0.000521  0.999789  0.001009  0  .  1
   O  O23  1  0.192695  0.935235  0.271825  0  .  1
   O  O24  1  0.202793  0.456440  0.269941  0  .  1
   O  O25  1  0.482255  0.629096  0.778696  0  .  1
   O  O26  1  0.485262  0.129127  0.775862  0  .  1
   O  O27  1  0.263362  0.683728  0.080438  0  .  1
   O  O28  1  0.265362  0.183381  0.085263  0  .  1
   O  O29  1  0.485901  0.379969  0.572351  0  .  1
   O  O30  1  0.490487  0.877226  0.574090  0  .  1
   O  O31  1  0.513119  0.621553  0.427504  0  .  1
   O  O32  1  0.510504  0.123835  0.426186  0  .  1
   O  O33  1  0.736845  0.314642  0.919375  0  .  1
   O  O34  1  0.734403  0.815769  0.914797  0  .  1
   O  O35  1  0.514361  0.870663  0.224850  0  .  1
   O  O36  1  0.518195  0.371303  0.220785  0  .  1
   O  O37  1  0.802895  0.532571  0.728197  0  .  1
   O  O38  1  0.802463  0.056432  0.730391  0  .  1
   O  O39  1  0.632175  0.584323  0.047142  0  .  1
   O  O40  1  0.616201  0.103676  0.042197  0  .  1
   O  O41  1  0.797601  0.804169  0.457174  0  .  1
   O  O42  1  0.792819  0.307653  0.464023  0  .  1
   O  O43  1  0.867858  0.790505  0.207945  0  .  1
   O  O44  1  0.867698  0.278705  0.208482  0  .  1
 
