#\#CIF1.1
##########################################################################
#               Crystallographic Information Format file 
#               Produced by PyCifRW module
# 
#  This is a CIF file.  CIF has been adopted by the International
#  Union of Crystallography as the standard for data archiving and 
#  transmission.
#
#  For information on this file format, follow the CIF links at
#  http://www.iucr.org
##########################################################################

data_V6O11
_symmetry_space_group_name_H-M          'P 1'
_cell_length_a                          5.77163757147
_cell_length_b                          5.86665485547
_cell_length_c                          13.40120262
_cell_angle_alpha                       90.0
_cell_angle_beta                        90.0
_cell_angle_gamma                       119.465669036
_chemical_name_systematic               'Generated by pymatgen'
_symmetry_Int_Tables_number             1
_chemical_formula_structural            V6O11
_chemical_formula_sum                   'V12 O22'
_cell_volume                            395.072922383
_cell_formula_units_Z                   2
loop_
  _symmetry_equiv_pos_site_id
  _symmetry_equiv_pos_as_xyz
   1  'x, y, z'
 
loop_
  _atom_site_type_symbol
  _atom_site_label
  _atom_site_symmetry_multiplicity
  _atom_site_fract_x
  _atom_site_fract_y
  _atom_site_fract_z
  _atom_site_attached_hydrogens
  _atom_site_B_iso_or_equiv
  _atom_site_occupancy
   V  V1  1  0.000097  0.000193  0.648823  0  .  1
   V  V2  1  0.001197  0.002393  0.851250  0  .  1
   V  V3  1  0.498941  0.997883  0.500085  0  .  1
   V  V4  1  0.999460  0.498550  0.499790  0  .  1
   V  V5  1  0.499089  0.498550  0.499790  0  .  1
   V  V6  1  0.330186  0.660373  0.248956  0  .  1
   V  V7  1  0.669814  0.339627  0.748956  0  .  1
   V  V8  1  0.500911  0.501450  0.999790  0  .  1
   V  V9  1  0.000540  0.501450  0.999790  0  .  1
   V  V10  1  0.501059  0.002117  0.000085  0  .  1
   V  V11  1  0.998803  0.997607  0.351250  0  .  1
   V  V12  1  -0.000097  -0.000193  0.148823  0  .  1
   O  O13  1  0.300403  0.144081  0.749741  0  .  1
   O  O14  1  0.159296  0.318594  0.250159  0  .  1
   O  O15  1  0.341356  0.169515  0.426211  0  .  1
   O  O16  1  0.343215  0.173037  0.073971  0  .  1
   O  O17  1  0.174797  0.349594  0.574496  0  .  1
   O  O18  1  0.176128  0.352258  0.925352  0  .  1
   O  O19  1  0.843678  0.144081  0.749741  0  .  1
   O  O20  1  0.828159  0.169515  0.426211  0  .  1
   O  O21  1  0.666004  0.332008  0.913732  0  .  1
   O  O22  1  0.664791  0.329583  0.586185  0  .  1
   O  O23  1  0.829822  0.173037  0.073971  0  .  1
   O  O24  1  0.170178  0.826963  0.573971  0  .  1
   O  O25  1  0.335209  0.670417  0.086185  0  .  1
   O  O26  1  0.333996  0.667992  0.413732  0  .  1
   O  O27  1  0.171841  0.830485  0.926211  0  .  1
   O  O28  1  0.156322  0.855919  0.249741  0  .  1
   O  O29  1  0.823872  0.647742  0.425352  0  .  1
   O  O30  1  0.825203  0.650406  0.074496  0  .  1
   O  O31  1  0.656785  0.826963  0.573971  0  .  1
   O  O32  1  0.658644  0.830485  0.926211  0  .  1
   O  O33  1  0.840704  0.681406  0.750159  0  .  1
   O  O34  1  0.699597  0.855919  0.249741  0  .  1
 
