#\#CIF1.1
##########################################################################
#               Crystallographic Information Format file 
#               Produced by PyCifRW module
# 
#  This is a CIF file.  CIF has been adopted by the International
#  Union of Crystallography as the standard for data archiving and 
#  transmission.
#
#  For information on this file format, follow the CIF links at
#  http://www.iucr.org
##########################################################################

data_V7O13
_symmetry_space_group_name_H-M          'P 1'
_cell_length_a                          5.54868236481
_cell_length_b                          7.12003825171
_cell_length_c                          11.4361823989
_cell_angle_alpha                       82.9892897911
_cell_angle_beta                        89.844885938
_cell_angle_gamma                       72.0090459277
_chemical_name_systematic               'Generated by pymatgen'
_symmetry_Int_Tables_number             1
_chemical_formula_structural            V7O13
_chemical_formula_sum                   'V14 O26'
_cell_volume                            426.210389991
_cell_formula_units_Z                   2
loop_
  _symmetry_equiv_pos_site_id
  _symmetry_equiv_pos_as_xyz
   1  'x, y, z'
 
loop_
  _atom_site_type_symbol
  _atom_site_label
  _atom_site_symmetry_multiplicity
  _atom_site_fract_x
  _atom_site_fract_y
  _atom_site_fract_z
  _atom_site_attached_hydrogens
  _atom_site_B_iso_or_equiv
  _atom_site_occupancy
   O  O1  1  0.637871  0.173792  0.488447  0  .  1
   O  O2  1  0.362129  0.826208  0.511553  0  .  1
   O  O3  1  0.125654  0.225719  0.442749  0  .  1
   O  O4  1  0.874346  0.774281  0.557251  0  .  1
   O  O5  1  0.288768  0.535154  0.393040  0  .  1
   O  O6  1  0.711232  0.464846  0.606960  0  .  1
   O  O7  1  0.756882  0.596807  0.361907  0  .  1
   O  O8  1  0.243118  0.403193  0.638093  0  .  1
   O  O9  1  0.026184  0.924795  0.329381  0  .  1
   O  O10  1  0.973816  0.075205  0.670619  0  .  1
   O  O11  1  0.500138  0.989763  0.297418  0  .  1
   O  O12  1  0.499862  0.010237  0.702582  0  .  1
   O  O13  1  0.665550  0.286104  0.253812  0  .  1
   O  O14  1  0.334450  0.713896  0.746188  0  .  1
   O  O15  1  0.191504  0.556406  0.976150  0  .  1
   O  O16  1  0.808496  0.443594  0.023850  0  .  1
   O  O17  1  0.456141  0.835328  0.943309  0  .  1
   O  O18  1  0.543859  0.164672  0.056691  0  .  1
   O  O19  1  0.952201  0.929631  0.907823  0  .  1
   O  O20  1  0.047799  0.070369  0.092177  0  .  1
   O  O21  1  0.128854  0.231522  0.878443  0  .  1
   O  O22  1  0.871146  0.768478  0.121557  0  .  1
   O  O23  1  0.580669  0.306886  0.822255  0  .  1
   O  O24  1  0.419331  0.693114  0.177745  0  .  1
   O  O25  1  0.843950  0.638487  0.793093  0  .  1
   O  O26  1  0.156050  0.361513  0.206907  0  .  1
   V  V27  1  0.000000  0.500000  0.500000  0  .  1
   V  V28  1  0.000000  0.000000  0.500000  0  .  1
   V  V29  1  0.385405  0.261905  0.352257  0  .  1
   V  V30  1  0.614595  0.738095  0.647743  0  .  1
   V  V31  1  0.410545  0.749821  0.358972  0  .  1
   V  V32  1  0.589455  0.250179  0.641028  0  .  1
   V  V33  1  0.793507  0.016743  0.214359  0  .  1
   V  V34  1  0.206493  0.983257  0.785641  0  .  1
   V  V35  1  0.793746  0.510857  0.201593  0  .  1
   V  V36  1  0.206254  0.489143  0.798407  0  .  1
   V  V37  1  0.202301  0.785318  0.058718  0  .  1
   V  V38  1  0.797699  0.214682  0.941282  0  .  1
   V  V39  1  0.210901  0.283402  0.054526  0  .  1
   V  V40  1  0.789099  0.716598  0.945474  0  .  1
 
