#\#CIF1.1
##########################################################################
#               Crystallographic Information Format file 
#               Produced by PyCifRW module
# 
#  This is a CIF file.  CIF has been adopted by the International
#  Union of Crystallography as the standard for data archiving and 
#  transmission.
#
#  For information on this file format, follow the CIF links at
#  http://www.iucr.org
##########################################################################

data_V8Ni2O15
_symmetry_space_group_name_H-M          'P 1'
_cell_length_a                          5.52017746281
_cell_length_b                          5.52017723431
_cell_length_c                          27.6647794367
_cell_angle_alpha                       54.6480625713
_cell_angle_beta                        54.648064283
_cell_angle_gamma                       54.9949568476
_chemical_name_systematic               'Generated by pymatgen'
_symmetry_Int_Tables_number             1
_chemical_formula_structural            V8Ni2O15
_chemical_formula_sum                   'V16 Ni4 O30'
_cell_volume                            523.389707515
_cell_formula_units_Z                   2
loop_
  _symmetry_equiv_pos_site_id
  _symmetry_equiv_pos_as_xyz
   1  'x, y, z'
 
loop_
  _atom_site_type_symbol
  _atom_site_label
  _atom_site_symmetry_multiplicity
  _atom_site_fract_x
  _atom_site_fract_y
  _atom_site_fract_z
  _atom_site_attached_hydrogens
  _atom_site_B_iso_or_equiv
  _atom_site_occupancy
   V  V1  1  0.152270  0.149852  0.028350  0  .  1
   V  V2  1  0.357124  0.333392  0.071779  0  .  1
   V  V3  1  0.347184  0.350593  0.269481  0  .  1
   V  V4  1  0.642876  0.666608  0.128221  0  .  1
   V  V5  1  0.149407  0.152816  0.430519  0  .  1
   V  V6  1  0.847730  0.850148  0.171650  0  .  1
   V  V7  1  0.652591  0.645406  0.330738  0  .  1
   V  V8  1  0.166608  0.142876  0.628221  0  .  1
   V  V9  1  0.854594  0.847409  0.369262  0  .  1
   V  V10  1  0.350148  0.347730  0.671650  0  .  1
   V  V11  1  0.649852  0.652270  0.528350  0  .  1
   V  V12  1  0.145406  0.152591  0.830738  0  .  1
   V  V13  1  0.833392  0.857124  0.571779  0  .  1
   V  V14  1  0.347409  0.354594  0.869262  0  .  1
   V  V15  1  0.850593  0.847184  0.769481  0  .  1
   V  V16  1  0.652816  0.649407  0.930519  0  .  1
   Ni  Ni17  1  0.139810  0.151278  0.230418  0  .  1
   Ni  Ni18  1  0.348722  0.360190  0.469582  0  .  1
   Ni  Ni19  1  0.651278  0.639810  0.730418  0  .  1
   Ni  Ni20  1  0.860190  0.848722  0.969582  0  .  1
   O  O21  1  0.056415  0.745498  0.088483  0  .  1
   O  O22  1  0.445626  0.065724  0.148157  0  .  1
   O  O23  1  0.745681  0.437078  0.011538  0  .  1
   O  O24  1  0.254319  0.562922  0.188462  0  .  1
   O  O25  1  0.554374  0.934276  0.051843  0  .  1
   O  O26  1  0.048921  0.741658  0.290442  0  .  1
   O  O27  1  0.943585  0.254502  0.111517  0  .  1
   O  O28  1  0.444096  0.055904  0.350000  0  .  1
   O  O29  1  0.742804  0.460487  0.208395  0  .  1
   O  O30  1  0.259027  0.567031  0.385312  0  .  1
   O  O31  1  0.567104  0.937789  0.251822  0  .  1
   O  O32  1  0.039513  0.757196  0.491605  0  .  1
   O  O33  1  0.932969  0.240973  0.314688  0  .  1
   O  O34  1  0.434276  0.054374  0.551843  0  .  1
   O  O35  1  0.758342  0.451079  0.409558  0  .  1
   O  O36  1  0.245498  0.556415  0.588483  0  .  1
   O  O37  1  0.562211  0.932896  0.448178  0  .  1
   O  O38  1  0.062922  0.754319  0.688462  0  .  1
   O  O39  1  0.937078  0.245681  0.511538  0  .  1
   O  O40  1  0.437789  0.067104  0.751822  0  .  1
   O  O41  1  0.754502  0.443585  0.611517  0  .  1
   O  O42  1  0.241658  0.548921  0.790442  0  .  1
   O  O43  1  0.565724  0.945626  0.648157  0  .  1
   O  O44  1  0.067031  0.759027  0.885312  0  .  1
   O  O45  1  0.960487  0.242804  0.708395  0  .  1
   O  O46  1  0.432896  0.062211  0.948178  0  .  1
   O  O47  1  0.740973  0.432969  0.814688  0  .  1
   O  O48  1  0.257196  0.539513  0.991605  0  .  1
   O  O49  1  0.555904  0.944096  0.850000  0  .  1
   O  O50  1  0.951079  0.258342  0.909558  0  .  1
 
