#\#CIF1.1
##########################################################################
#               Crystallographic Information Format file 
#               Produced by PyCifRW module
# 
#  This is a CIF file.  CIF has been adopted by the International
#  Union of Crystallography as the standard for data archiving and 
#  transmission.
#
#  For information on this file format, follow the CIF links at
#  http://www.iucr.org
##########################################################################

data_V8O
_symmetry_space_group_name_H-M          'P 1'
_cell_length_a                          3.02622870002
_cell_length_b                          8.8834892976
_cell_length_c                          8.88447436761
_cell_angle_alpha                       89.9909719624
_cell_angle_beta                        90.0004045885
_cell_angle_gamma                       89.9997799187
_chemical_name_systematic               'Generated by pymatgen'
_symmetry_Int_Tables_number             1
_chemical_formula_structural            V8O
_chemical_formula_sum                   'V16 O2'
_cell_volume                            238.845499543
_cell_formula_units_Z                   2
loop_
  _symmetry_equiv_pos_site_id
  _symmetry_equiv_pos_as_xyz
   1  'x, y, z'
 
loop_
  _atom_site_type_symbol
  _atom_site_label
  _atom_site_symmetry_multiplicity
  _atom_site_fract_x
  _atom_site_fract_y
  _atom_site_fract_z
  _atom_site_attached_hydrogens
  _atom_site_B_iso_or_equiv
  _atom_site_occupancy
   V  V1  1  0.499999  0.383291  0.129083  0  .  1
   V  V2  1  0.499998  0.616726  0.870762  0  .  1
   V  V3  1  0.000001  0.116634  0.629270  0  .  1
   V  V4  1  0.999997  0.883383  0.370880  0  .  1
   V  V5  1  0.499999  0.129084  0.383311  0  .  1
   V  V6  1  0.500000  0.870777  0.616739  0  .  1
   V  V7  1  -0.000001  0.629165  0.116586  0  .  1
   V  V8  1  -0.000000  0.370757  0.883331  0  .  1
   V  V9  1  0.499999  0.344995  0.655106  0  .  1
   V  V10  1  0.500000  0.655128  0.344986  0  .  1
   V  V11  1  1.000000  0.155112  0.155042  0  .  1
   V  V12  1  0.000004  0.844965  0.844893  0  .  1
   V  V13  1  0.500001  0.119283  0.880694  0  .  1
   V  V14  1  0.500002  0.880686  0.119317  0  .  1
   V  V15  1  0.000000  0.380622  0.380630  0  .  1
   V  V16  1  -0.000000  0.619375  0.619379  0  .  1
   O  O17  1  0.500001  0.500020  0.499975  0  .  1
   O  O18  1  0.999999  0.999997  0.000017  0  .  1
 
