#\#CIF1.1
##########################################################################
#               Crystallographic Information Format file 
#               Produced by PyCifRW module
# 
#  This is a CIF file.  CIF has been adopted by the International
#  Union of Crystallography as the standard for data archiving and 
#  transmission.
#
#  For information on this file format, follow the CIF links at
#  http://www.iucr.org
##########################################################################

data_V9O17
_symmetry_space_group_name_H-M          'P 1'
_cell_length_a                          5.53664096783
_cell_length_b                          7.1185797707
_cell_length_c                          14.7707278189
_cell_angle_alpha                       83.9568187399
_cell_angle_beta                        90.2205842488
_cell_angle_gamma                       71.8438425822
_chemical_name_systematic               'Generated by pymatgen'
_symmetry_Int_Tables_number             1
_chemical_formula_structural            V9O17
_chemical_formula_sum                   'V18 O34'
_cell_volume                            549.685623643
_cell_formula_units_Z                   2
loop_
  _symmetry_equiv_pos_site_id
  _symmetry_equiv_pos_as_xyz
   1  'x, y, z'
 
loop_
  _atom_site_type_symbol
  _atom_site_label
  _atom_site_symmetry_multiplicity
  _atom_site_fract_x
  _atom_site_fract_y
  _atom_site_fract_z
  _atom_site_attached_hydrogens
  _atom_site_B_iso_or_equiv
  _atom_site_occupancy
   V  V1  1  0.327825  0.914132  0.732531  0  .  1
   V  V2  1  0.669748  0.081790  0.272814  0  .  1
   V  V3  1  0.742922  0.119209  0.840736  0  .  1
   V  V4  1  0.249878  0.896155  0.158636  0  .  1
   V  V5  1  0.328373  0.416830  0.728764  0  .  1
   V  V6  1  0.673110  0.585139  0.275626  0  .  1
   V  V7  1  0.915007  0.201504  0.614018  0  .  1
   V  V8  1  0.088328  0.795875  0.384648  0  .  1
   V  V9  1  0.241987  0.405412  0.160717  0  .  1
   V  V10  1  0.744820  0.616583  0.836394  0  .  1
   V  V11  1  0.797458  0.694917  0.039231  0  .  1
   V  V12  1  0.187768  0.318047  0.957013  0  .  1
   V  V13  1  0.921393  0.701110  0.609004  0  .  1
   V  V14  1  0.090154  0.291202  0.386848  0  .  1
   V  V15  1  0.803554  0.193928  0.044016  0  .  1
   V  V16  1  0.189375  0.813271  0.958526  0  .  1
   V  V17  1  0.496766  0.996358  0.499718  0  .  1
   V  V18  1  0.506894  0.496012  0.500775  0  .  1
   O  O19  1  0.147236  0.195156  0.094668  0  .  1
   O  O20  1  0.842827  0.814326  0.906525  0  .  1
   O  O21  1  0.957677  0.069496  0.749252  0  .  1
   O  O22  1  0.023237  0.929046  0.259041  0  .  1
   O  O23  1  0.198957  0.004932  0.417026  0  .  1
   O  O24  1  0.801824  0.976358  0.583642  0  .  1
   O  O25  1  0.195774  0.539907  0.020947  0  .  1
   O  O26  1  0.792466  0.461111  0.978086  0  .  1
   O  O27  1  0.730575  0.954565  0.394085  0  .  1
   O  O28  1  0.254785  0.049937  0.604588  0  .  1
   O  O29  1  0.566274  0.356360  0.625691  0  .  1
   O  O30  1  0.451565  0.627611  0.370086  0  .  1
   O  O31  1  0.796421  0.298258  0.305571  0  .  1
   O  O32  1  0.221813  0.685116  0.693327  0  .  1
   O  O33  1  0.627752  0.400445  0.805622  0  .  1
   O  O34  1  0.375355  0.592328  0.192362  0  .  1
   O  O35  1  0.148828  0.664420  0.507927  0  .  1
   O  O36  1  0.861757  0.323305  0.489965  0  .  1
   O  O37  1  0.471719  0.814578  0.045817  0  .  1
   O  O38  1  0.542798  0.186960  0.955163  0  .  1
   O  O39  1  0.037030  0.116178  0.931136  0  .  1
   O  O40  1  0.960675  0.896395  0.070469  0  .  1
   O  O41  1  0.437840  0.134852  0.772314  0  .  1
   O  O42  1  0.559521  0.878379  0.230370  0  .  1
   O  O43  1  0.396816  0.768939  0.858356  0  .  1
   O  O44  1  0.615058  0.226171  0.139842  0  .  1
   O  O45  1  0.029545  0.425736  0.651584  0  .  1
   O  O46  1  0.970559  0.579193  0.346810  0  .  1
   O  O47  1  0.370156  0.296759  0.459111  0  .  1
   O  O48  1  0.622968  0.699936  0.536171  0  .  1
   O  O49  1  0.308235  0.252259  0.276571  0  .  1
   O  O50  1  0.707640  0.738735  0.724708  0  .  1
   O  O51  1  0.111901  0.453832  0.841015  0  .  1
   O  O52  1  0.887058  0.550943  0.162140  0  .  1
 
