#\#CIF1.1
##########################################################################
#               Crystallographic Information Format file 
#               Produced by PyCifRW module
# 
#  This is a CIF file.  CIF has been adopted by the International
#  Union of Crystallography as the standard for data archiving and 
#  transmission.
#
#  For information on this file format, follow the CIF links at
#  http://www.iucr.org
##########################################################################

data_VCl3
_symmetry_space_group_name_H-M          'P 1'
_cell_length_a                          7.43373334154
_cell_length_b                          7.43373333795
_cell_length_c                          7.43373333763
_cell_angle_alpha                       48.381967828
_cell_angle_beta                        48.381967842
_cell_angle_gamma                       48.3819678136
_chemical_name_systematic               'Generated by pymatgen'
_symmetry_Int_Tables_number             1
_chemical_formula_structural            VCl3
_chemical_formula_sum                   'V2 Cl6'
_cell_volume                            210.510130162
_cell_formula_units_Z                   2
loop_
  _symmetry_equiv_pos_site_id
  _symmetry_equiv_pos_as_xyz
   1  'x, y, z'
 
loop_
  _atom_site_type_symbol
  _atom_site_label
  _atom_site_symmetry_multiplicity
  _atom_site_fract_x
  _atom_site_fract_y
  _atom_site_fract_z
  _atom_site_attached_hydrogens
  _atom_site_B_iso_or_equiv
  _atom_site_occupancy
   Cl  Cl1  1  0.572155  0.289418  0.930819  0  .  1
   Cl  Cl2  1  0.289418  0.930819  0.572155  0  .  1
   Cl  Cl3  1  0.069181  0.427845  0.710582  0  .  1
   Cl  Cl4  1  0.710582  0.069181  0.427845  0  .  1
   Cl  Cl5  1  0.427845  0.710582  0.069181  0  .  1
   Cl  Cl6  1  0.930819  0.572155  0.289418  0  .  1
   V  V7  1  0.666666  0.666666  0.666666  0  .  1
   V  V8  1  0.333334  0.333334  0.333334  0  .  1
 
