#\#CIF1.1
##########################################################################
#               Crystallographic Information Format file 
#               Produced by PyCifRW module
# 
#  This is a CIF file.  CIF has been adopted by the International
#  Union of Crystallography as the standard for data archiving and 
#  transmission.
#
#  For information on this file format, follow the CIF links at
#  http://www.iucr.org
##########################################################################

data_VClO
_symmetry_space_group_name_H-M          'P 1'
_cell_length_a                          3.37862924
_cell_length_b                          3.8498406
_cell_length_c                          8.21559911
_cell_angle_alpha                       90.0
_cell_angle_beta                        90.0
_cell_angle_gamma                       90.0
_chemical_name_systematic               'Generated by pymatgen'
_symmetry_Int_Tables_number             1
_chemical_formula_structural            VClO
_chemical_formula_sum                   'V2 Cl2 O2'
_cell_volume                            106.861809462
_cell_formula_units_Z                   2
loop_
  _symmetry_equiv_pos_site_id
  _symmetry_equiv_pos_as_xyz
   1  'x, y, z'
 
loop_
  _atom_site_type_symbol
  _atom_site_label
  _atom_site_symmetry_multiplicity
  _atom_site_fract_x
  _atom_site_fract_y
  _atom_site_fract_z
  _atom_site_attached_hydrogens
  _atom_site_B_iso_or_equiv
  _atom_site_occupancy
   O  O1  1  0.249999  0.250000  0.956583  0  .  1
   O  O2  1  0.750001  0.750000  0.043417  0  .  1
   Cl  Cl3  1  0.750001  0.750000  0.677139  0  .  1
   Cl  Cl4  1  0.249999  0.250000  0.322862  0  .  1
   V  V5  1  0.750001  0.250000  0.113543  0  .  1
   V  V6  1  0.249999  0.750000  0.886457  0  .  1
 
