#\#CIF1.1
##########################################################################
#               Crystallographic Information Format file 
#               Produced by PyCifRW module
# 
#  This is a CIF file.  CIF has been adopted by the International
#  Union of Crystallography as the standard for data archiving and 
#  transmission.
#
#  For information on this file format, follow the CIF links at
#  http://www.iucr.org
##########################################################################

data_VCoO4
_symmetry_space_group_name_H-M          'P 1'
_cell_length_a                          5.56178716
_cell_length_b                          10.4468801143
_cell_length_c                          4.62652671332
_cell_angle_alpha                       89.9961933335
_cell_angle_beta                        90.000012721
_cell_angle_gamma                       90.0000244081
_chemical_name_systematic               'Generated by pymatgen'
_symmetry_Int_Tables_number             1
_chemical_formula_structural            VCoO4
_chemical_formula_sum                   'V4 Co4 O16'
_cell_volume                            268.816578552
_cell_formula_units_Z                   4
loop_
  _symmetry_equiv_pos_site_id
  _symmetry_equiv_pos_as_xyz
   1  'x, y, z'
 
loop_
  _atom_site_type_symbol
  _atom_site_label
  _atom_site_symmetry_multiplicity
  _atom_site_fract_x
  _atom_site_fract_y
  _atom_site_fract_z
  _atom_site_attached_hydrogens
  _atom_site_B_iso_or_equiv
  _atom_site_occupancy
   V  V1  1  0.250000  0.087321  0.414258  0  .  1
   V  V2  1  0.250000  0.587286  0.085779  0  .  1
   V  V3  1  0.750000  0.412705  0.914166  0  .  1
   V  V4  1  0.750000  0.912695  0.585804  0  .  1
   Co  Co5  1  0.250000  0.261414  0.982462  0  .  1
   Co  Co6  1  0.250000  0.761383  0.517572  0  .  1
   Co  Co7  1  0.750000  0.238617  0.482410  0  .  1
   Co  Co8  1  0.750000  0.738582  0.017547  0  .  1
   O  O9  1  0.011325  0.177960  0.247223  0  .  1
   O  O10  1  0.011304  0.677914  0.252783  0  .  1
   O  O11  1  0.250000  0.425946  0.161824  0  .  1
   O  O12  1  0.250000  0.107031  0.778295  0  .  1
   O  O13  1  0.250000  0.606968  0.721777  0  .  1
   O  O14  1  0.250000  0.925987  0.338279  0  .  1
   O  O15  1  0.488675  0.177960  0.247222  0  .  1
   O  O16  1  0.488696  0.677914  0.252783  0  .  1
   O  O17  1  0.511297  0.822047  0.752771  0  .  1
   O  O18  1  0.511264  0.322078  0.747220  0  .  1
   O  O19  1  0.750000  0.574032  0.838107  0  .  1
   O  O20  1  0.750000  0.074032  0.661786  0  .  1
   O  O21  1  0.750000  0.393035  0.278162  0  .  1
   O  O22  1  0.750000  0.892969  0.221780  0  .  1
   O  O23  1  0.988736  0.322078  0.747220  0  .  1
   O  O24  1  0.988703  0.822047  0.752770  0  .  1
 
