#\#CIF1.1
##########################################################################
#               Crystallographic Information Format file 
#               Produced by PyCifRW module
# 
#  This is a CIF file.  CIF has been adopted by the International
#  Union of Crystallography as the standard for data archiving and 
#  transmission.
#
#  For information on this file format, follow the CIF links at
#  http://www.iucr.org
##########################################################################

data_VCrO3
_symmetry_space_group_name_H-M          'P 1'
_cell_length_a                          5.11809899501
_cell_length_b                          5.50588323987
_cell_length_c                          9.06972416769
_cell_angle_alpha                       85.1058452068
_cell_angle_beta                        73.7113819041
_cell_angle_gamma                       117.765257235
_chemical_name_systematic               'Generated by pymatgen'
_symmetry_Int_Tables_number             1
_chemical_formula_structural            VCrO3
_chemical_formula_sum                   'V4 Cr4 O12'
_cell_volume                            209.941905
_cell_formula_units_Z                   4
loop_
  _symmetry_equiv_pos_site_id
  _symmetry_equiv_pos_as_xyz
   1  'x, y, z'
 
loop_
  _atom_site_type_symbol
  _atom_site_label
  _atom_site_symmetry_multiplicity
  _atom_site_fract_x
  _atom_site_fract_y
  _atom_site_fract_z
  _atom_site_attached_hydrogens
  _atom_site_B_iso_or_equiv
  _atom_site_occupancy
   V  V1  1  0.147013  0.873109  0.574478  0  .  1
   V  V2  1  0.151508  0.370748  0.075254  0  .  1
   V  V3  1  0.354940  0.877255  0.173568  0  .  1
   V  V4  1  0.850746  0.128134  0.426395  0  .  1
   Cr  Cr5  1  0.346766  0.370901  0.675474  0  .  1
   Cr  Cr6  1  0.653397  0.629466  0.324573  0  .  1
   Cr  Cr7  1  0.650189  0.127419  0.826123  0  .  1
   Cr  Cr8  1  0.850653  0.623697  0.924272  0  .  1
   O  O9  1  0.051459  0.524408  0.723423  0  .  1
   O  O10  1  0.051524  0.025702  0.223875  0  .  1
   O  O11  1  0.447115  0.874361  0.373816  0  .  1
   O  O12  1  0.557916  0.624802  0.124334  0  .  1
   O  O13  1  0.248872  0.773346  0.973895  0  .  1
   O  O14  1  0.251219  0.280291  0.473129  0  .  1
   O  O15  1  0.746917  0.721442  0.527196  0  .  1
   O  O16  1  0.748842  0.224753  0.025408  0  .  1
   O  O17  1  0.447513  0.374489  0.874766  0  .  1
   O  O18  1  0.550880  0.126029  0.626816  0  .  1
   O  O19  1  0.946031  0.974540  0.776127  0  .  1
   O  O20  1  0.946499  0.475107  0.277078  0  .  1
 
