#\#CIF1.1
##########################################################################
#               Crystallographic Information Format file 
#               Produced by PyCifRW module
# 
#  This is a CIF file.  CIF has been adopted by the International
#  Union of Crystallography as the standard for data archiving and 
#  transmission.
#
#  For information on this file format, follow the CIF links at
#  http://www.iucr.org
##########################################################################

data_VCrO5
_symmetry_space_group_name_H-M          'P 1'
_cell_length_a                          7.4570153
_cell_length_b                          6.68778734
_cell_length_c                          7.8260568
_cell_angle_alpha                       90.0
_cell_angle_beta                        90.0
_cell_angle_gamma                       90.0
_chemical_name_systematic               'Generated by pymatgen'
_symmetry_Int_Tables_number             1
_chemical_formula_structural            VCrO5
_chemical_formula_sum                   'V4 Cr4 O20'
_cell_volume                            390.292750551
_cell_formula_units_Z                   4
loop_
  _symmetry_equiv_pos_site_id
  _symmetry_equiv_pos_as_xyz
   1  'x, y, z'
 
loop_
  _atom_site_type_symbol
  _atom_site_label
  _atom_site_symmetry_multiplicity
  _atom_site_fract_x
  _atom_site_fract_y
  _atom_site_fract_z
  _atom_site_attached_hydrogens
  _atom_site_B_iso_or_equiv
  _atom_site_occupancy
   V  V1  1  0.156370  0.250000  0.738112  0  .  1
   V  V2  1  0.343630  0.750000  0.238112  0  .  1
   V  V3  1  0.656370  0.250000  0.761888  0  .  1
   V  V4  1  0.843630  0.750000  0.261888  0  .  1
   Cr  Cr5  1  0.122326  0.750000  0.624936  0  .  1
   Cr  Cr6  1  0.377674  0.250000  0.124936  0  .  1
   Cr  Cr7  1  0.622326  0.750000  0.875064  0  .  1
   Cr  Cr8  1  0.877674  0.250000  0.375064  0  .  1
   O  O9  1  0.056770  0.250000  0.501689  0  .  1
   O  O10  1  0.123690  0.750000  0.192929  0  .  1
   O  O11  1  0.123087  0.546210  0.749170  0  .  1
   O  O12  1  0.123087  0.953790  0.749170  0  .  1
   O  O13  1  0.204453  0.250000  0.993746  0  .  1
   O  O14  1  0.295547  0.750000  0.493746  0  .  1
   O  O15  1  0.376913  0.046210  0.249170  0  .  1
   O  O16  1  0.376913  0.453790  0.249170  0  .  1
   O  O17  1  0.376310  0.250000  0.692929  0  .  1
   O  O18  1  0.443230  0.750000  0.001689  0  .  1
   O  O19  1  0.556770  0.250000  0.998311  0  .  1
   O  O20  1  0.623690  0.750000  0.307071  0  .  1
   O  O21  1  0.623087  0.546210  0.750830  0  .  1
   O  O22  1  0.623087  0.953790  0.750830  0  .  1
   O  O23  1  0.704453  0.250000  0.506254  0  .  1
   O  O24  1  0.795547  0.750000  0.006254  0  .  1
   O  O25  1  0.876913  0.046210  0.250830  0  .  1
   O  O26  1  0.876913  0.453790  0.250830  0  .  1
   O  O27  1  0.876310  0.250000  0.807071  0  .  1
   O  O28  1  0.943230  0.750000  0.498311  0  .  1
 
