#\#CIF1.1
##########################################################################
#               Crystallographic Information Format file 
#               Produced by PyCifRW module
# 
#  This is a CIF file.  CIF has been adopted by the International
#  Union of Crystallography as the standard for data archiving and 
#  transmission.
#
#  For information on this file format, follow the CIF links at
#  http://www.iucr.org
##########################################################################

data_VCu3O4
_symmetry_space_group_name_H-M          'P 1'
_cell_length_a                          4.59670186956
_cell_length_b                          4.59670521526
_cell_length_c                          5.56789384003
_cell_angle_alpha                       114.38222156
_cell_angle_beta                        114.382645387
_cell_angle_gamma                       90.0000424596
_chemical_name_systematic               'Generated by pymatgen'
_symmetry_Int_Tables_number             1
_chemical_formula_structural            VCu3O4
_chemical_formula_sum                   'V1 Cu3 O4'
_cell_volume                            95.5160194449
_cell_formula_units_Z                   1
loop_
  _symmetry_equiv_pos_site_id
  _symmetry_equiv_pos_as_xyz
   1  'x, y, z'
 
loop_
  _atom_site_type_symbol
  _atom_site_label
  _atom_site_symmetry_multiplicity
  _atom_site_fract_x
  _atom_site_fract_y
  _atom_site_fract_z
  _atom_site_attached_hydrogens
  _atom_site_B_iso_or_equiv
  _atom_site_occupancy
   O  O1  1  0.111602  0.111600  0.771282  0  .  1
   O  O2  1  0.340311  0.888412  0.228713  0  .  1
   O  O3  1  0.888409  0.340313  0.228712  0  .  1
   O  O4  1  0.659695  0.659695  0.771293  0  .  1
   V  V5  1  -0.000029  -0.000036  1.000000  0  .  1
   Cu  Cu6  1  0.250008  0.750004  0.500001  0  .  1
   Cu  Cu7  1  0.500036  0.500040  1.000009  0  .  1
   Cu  Cu8  1  0.749967  0.249969  0.499991  0  .  1
 
