#\#CIF1.1
##########################################################################
#               Crystallographic Information Format file 
#               Produced by PyCifRW module
# 
#  This is a CIF file.  CIF has been adopted by the International
#  Union of Crystallography as the standard for data archiving and 
#  transmission.
#
#  For information on this file format, follow the CIF links at
#  http://www.iucr.org
##########################################################################

data_VO
_symmetry_space_group_name_H-M          'P 1'
_cell_length_a                          3.20613631013
_cell_length_b                          5.13085476443
_cell_length_c                          3.20613611557
_cell_angle_alpha                       108.206145529
_cell_angle_beta                        60.0000060162
_cell_angle_gamma                       108.206141052
_chemical_name_systematic               'Generated by pymatgen'
_symmetry_Int_Tables_number             1
_chemical_formula_structural            VO
_chemical_formula_sum                   'V2 O2'
_cell_volume                            42.5995577012
_cell_formula_units_Z                   2
loop_
  _symmetry_equiv_pos_site_id
  _symmetry_equiv_pos_as_xyz
   1  'x, y, z'
 
loop_
  _atom_site_type_symbol
  _atom_site_label
  _atom_site_symmetry_multiplicity
  _atom_site_fract_x
  _atom_site_fract_y
  _atom_site_fract_z
  _atom_site_attached_hydrogens
  _atom_site_B_iso_or_equiv
  _atom_site_occupancy
   V  V1  1  0.000000  0.000000  0.000000  0  .  1
   V  V2  1  0.500000  0.500000  0.500000  0  .  1
   O  O3  1  0.749999  0.249996  0.749999  0  .  1
   O  O4  1  0.250001  0.750004  0.250001  0  .  1
 
