#\#CIF1.1
##########################################################################
#               Crystallographic Information Format file 
#               Produced by PyCifRW module
# 
#  This is a CIF file.  CIF has been adopted by the International
#  Union of Crystallography as the standard for data archiving and 
#  transmission.
#
#  For information on this file format, follow the CIF links at
#  http://www.iucr.org
##########################################################################

data_VO2
_symmetry_space_group_name_H-M          'P 1'
_cell_length_a                          2.93799323369
_cell_length_b                          4.94963117699
_cell_length_c                          9.35738282755
_cell_angle_alpha                       90.0349955931
_cell_angle_beta                        87.5838040158
_cell_angle_gamma                       89.6245540292
_chemical_name_systematic               'Generated by pymatgen'
_symmetry_Int_Tables_number             1
_chemical_formula_structural            VO2
_chemical_formula_sum                   'V4 O8'
_cell_volume                            135.950951739
_cell_formula_units_Z                   4
loop_
  _symmetry_equiv_pos_site_id
  _symmetry_equiv_pos_as_xyz
   1  'x, y, z'
 
loop_
  _atom_site_type_symbol
  _atom_site_label
  _atom_site_symmetry_multiplicity
  _atom_site_fract_x
  _atom_site_fract_y
  _atom_site_fract_z
  _atom_site_attached_hydrogens
  _atom_site_B_iso_or_equiv
  _atom_site_occupancy
   V  V1  1  0.239073  0.422890  0.638118  0  .  1
   V  V2  1  0.243825  0.081278  0.140115  0  .  1
   V  V3  1  0.751929  0.581810  0.363570  0  .  1
   V  V4  1  0.762559  0.928599  0.866830  0  .  1
   O  O5  1  0.741076  0.295291  0.522914  0  .  1
   O  O6  1  0.266073  0.794746  0.978190  0  .  1
   O  O7  1  0.756543  0.205018  0.022326  0  .  1
   O  O8  1  0.256781  0.710904  0.473666  0  .  1
   O  O9  1  0.735098  0.882231  0.233647  0  .  1
   O  O10  1  0.774049  0.607203  0.738132  0  .  1
   O  O11  1  0.234701  0.105096  0.760699  0  .  1
   O  O12  1  0.238292  0.384934  0.261792  0  .  1
 
