#\#CIF1.1
##########################################################################
#               Crystallographic Information Format file 
#               Produced by PyCifRW module
# 
#  This is a CIF file.  CIF has been adopted by the International
#  Union of Crystallography as the standard for data archiving and 
#  transmission.
#
#  For information on this file format, follow the CIF links at
#  http://www.iucr.org
##########################################################################

data_VS4
_symmetry_space_group_name_H-M          'P 1'
_cell_length_a                          7.30609014115
_cell_length_b                          8.62159283848
_cell_length_c                          8.62082215453
_cell_angle_alpha                       82.2157954069
_cell_angle_beta                        71.7572572874
_cell_angle_gamma                       71.7523037129
_chemical_name_systematic               'Generated by pymatgen'
_symmetry_Int_Tables_number             1
_chemical_formula_structural            VS4
_chemical_formula_sum                   'V4 S16'
_cell_volume                            489.376509359
_cell_formula_units_Z                   4
loop_
  _symmetry_equiv_pos_site_id
  _symmetry_equiv_pos_as_xyz
   1  'x, y, z'
 
loop_
  _atom_site_type_symbol
  _atom_site_label
  _atom_site_symmetry_multiplicity
  _atom_site_fract_x
  _atom_site_fract_y
  _atom_site_fract_z
  _atom_site_attached_hydrogens
  _atom_site_B_iso_or_equiv
  _atom_site_occupancy
   V  V1  1  0.116076  0.884383  0.883747  0  .  1
   V  V2  1  0.883924  0.115617  0.116253  0  .  1
   V  V3  1  0.383923  0.616246  0.615600  0  .  1
   V  V4  1  0.616077  0.383754  0.384400  0  .  1
   S  S5  1  0.538481  0.672689  0.334463  0  .  1
   S  S6  1  0.269096  0.422192  0.527908  0  .  1
   S  S7  1  0.461519  0.327311  0.665537  0  .  1
   S  S8  1  0.230874  0.972130  0.077766  0  .  1
   S  S9  1  0.957833  0.349896  0.173462  0  .  1
   S  S10  1  0.438597  0.870082  0.691852  0  .  1
   S  S11  1  0.938632  0.191797  0.370060  0  .  1
   S  S12  1  0.769126  0.027870  0.922234  0  .  1
   S  S13  1  0.730904  0.577808  0.472092  0  .  1
   S  S14  1  0.457721  0.673516  0.849959  0  .  1
   S  S15  1  0.561403  0.129918  0.308148  0  .  1
   S  S16  1  0.061368  0.808203  0.629940  0  .  1
   S  S17  1  0.042167  0.650104  0.826538  0  .  1
   S  S18  1  0.038410  0.834488  0.172728  0  .  1
   S  S19  1  0.542279  0.326484  0.150041  0  .  1
   S  S20  1  0.961590  0.165512  0.827272  0  .  1
 
