#\#CIF1.1
##########################################################################
#               Crystallographic Information Format file 
#               Produced by PyCifRW module
# 
#  This is a CIF file.  CIF has been adopted by the International
#  Union of Crystallography as the standard for data archiving and 
#  transmission.
#
#  For information on this file format, follow the CIF links at
#  http://www.iucr.org
##########################################################################

data_VZn2O4
_symmetry_space_group_name_H-M          'P 1'
_cell_length_a                          6.04895749425
_cell_length_b                          6.04895749284
_cell_length_c                          6.06189781
_cell_angle_alpha                       59.9292025811
_cell_angle_beta                        59.9292026146
_cell_angle_gamma                       59.2461980521
_chemical_name_systematic               'Generated by pymatgen'
_symmetry_Int_Tables_number             1
_chemical_formula_structural            VZn2O4
_chemical_formula_sum                   'V2 Zn4 O8'
_cell_volume                            155.761098939
_cell_formula_units_Z                   2
loop_
  _symmetry_equiv_pos_site_id
  _symmetry_equiv_pos_as_xyz
   1  'x, y, z'
 
loop_
  _atom_site_type_symbol
  _atom_site_label
  _atom_site_symmetry_multiplicity
  _atom_site_fract_x
  _atom_site_fract_y
  _atom_site_fract_z
  _atom_site_attached_hydrogens
  _atom_site_B_iso_or_equiv
  _atom_site_occupancy
   V  V1  1  0.625000  0.625000  0.125000  0  .  1
   V  V2  1  0.625000  0.625000  0.625000  0  .  1
   Zn  Zn3  1  0.989819  0.989819  0.010181  0  .  1
   Zn  Zn4  1  0.260181  0.260181  0.239819  0  .  1
   Zn  Zn5  1  0.125000  0.625000  0.625000  0  .  1
   Zn  Zn6  1  0.625000  0.125000  0.625000  0  .  1
   O  O7  1  0.402625  0.402625  0.358228  0  .  1
   O  O8  1  0.404649  0.851857  0.371747  0  .  1
   O  O9  1  0.402625  0.402625  0.836521  0  .  1
   O  O10  1  0.398143  0.845351  0.878253  0  .  1
   O  O11  1  0.851857  0.404649  0.371747  0  .  1
   O  O12  1  0.847375  0.847375  0.413479  0  .  1
   O  O13  1  0.845351  0.398143  0.878253  0  .  1
   O  O14  1  0.847375  0.847375  0.891772  0  .  1
 
