#\#CIF1.1
##########################################################################
#               Crystallographic Information Format file 
#               Produced by PyCifRW module
# 
#  This is a CIF file.  CIF has been adopted by the International
#  Union of Crystallography as the standard for data archiving and 
#  transmission.
#
#  For information on this file format, follow the CIF links at
#  http://www.iucr.org
##########################################################################

data_Y2Mn2O7
_symmetry_space_group_name_H-M          'P 1'
_cell_length_a                          7.11169513549
_cell_length_b                          7.11169513426
_cell_length_c                          7.11169513
_cell_angle_alpha                       59.9999999733
_cell_angle_beta                        59.999999979
_cell_angle_gamma                       59.9999999803
_chemical_name_systematic               'Generated by pymatgen'
_symmetry_Int_Tables_number             1
_chemical_formula_structural            Y2Mn2O7
_chemical_formula_sum                   'Y4 Mn4 O14'
_cell_volume                            254.333984145
_cell_formula_units_Z                   2
loop_
  _symmetry_equiv_pos_site_id
  _symmetry_equiv_pos_as_xyz
   1  'x, y, z'
 
loop_
  _atom_site_type_symbol
  _atom_site_label
  _atom_site_symmetry_multiplicity
  _atom_site_fract_x
  _atom_site_fract_y
  _atom_site_fract_z
  _atom_site_attached_hydrogens
  _atom_site_B_iso_or_equiv
  _atom_site_occupancy
   O  O1  1  0.625000  0.625000  0.625000  0  .  1
   O  O2  1  0.375000  0.375000  0.375000  0  .  1
   O  O3  1  0.329934  0.920066  0.920066  0  .  1
   O  O4  1  0.079934  0.670066  0.670066  0  .  1
   O  O5  1  0.920066  0.329934  0.920066  0  .  1
   O  O6  1  0.920066  0.920066  0.329934  0  .  1
   O  O7  1  0.329934  0.329934  0.920066  0  .  1
   O  O8  1  0.329934  0.920066  0.329934  0  .  1
   O  O9  1  0.920066  0.329934  0.329934  0  .  1
   O  O10  1  0.670066  0.670066  0.079934  0  .  1
   O  O11  1  0.079934  0.079934  0.670066  0  .  1
   O  O12  1  0.670066  0.079934  0.079934  0  .  1
   O  O13  1  0.670066  0.079934  0.670066  0  .  1
   O  O14  1  0.079934  0.670066  0.079934  0  .  1
   Mn  Mn15  1  0.000000  0.500000  0.000000  0  .  1
   Mn  Mn16  1  0.500000  0.000000  0.000000  0  .  1
   Mn  Mn17  1  0.000000  0.000000  0.500000  0  .  1
   Mn  Mn18  1  0.000000  0.000000  0.000000  0  .  1
   Y  Y19  1  0.500000  0.000000  0.500000  0  .  1
   Y  Y20  1  0.000000  0.500000  0.500000  0  .  1
   Y  Y21  1  0.500000  0.500000  0.000000  0  .  1
   Y  Y22  1  0.500000  0.500000  0.500000  0  .  1
 
