#\#CIF1.1
##########################################################################
#               Crystallographic Information Format file 
#               Produced by PyCifRW module
# 
#  This is a CIF file.  CIF has been adopted by the International
#  Union of Crystallography as the standard for data archiving and 
#  transmission.
#
#  For information on this file format, follow the CIF links at
#  http://www.iucr.org
##########################################################################

data_Y6Fe16O
_symmetry_space_group_name_H-M          'P 1'
_cell_length_a                          8.19360208032
_cell_length_b                          8.19360244203
_cell_length_c                          8.19360276
_cell_angle_alpha                       109.471224376
_cell_angle_beta                        109.471225343
_cell_angle_gamma                       109.471215076
_chemical_name_systematic               'Generated by pymatgen'
_symmetry_Int_Tables_number             1
_chemical_formula_structural            Y6Fe16O
_chemical_formula_sum                   'Y6 Fe16 O1'
_cell_volume                            423.450602579
_cell_formula_units_Z                   1
loop_
  _symmetry_equiv_pos_site_id
  _symmetry_equiv_pos_as_xyz
   1  'x, y, z'
 
loop_
  _atom_site_type_symbol
  _atom_site_label
  _atom_site_symmetry_multiplicity
  _atom_site_fract_x
  _atom_site_fract_y
  _atom_site_fract_z
  _atom_site_attached_hydrogens
  _atom_site_B_iso_or_equiv
  _atom_site_occupancy
   Y  Y1  1  0.000000  0.262558  0.262558  0  .  1
   Y  Y2  1  0.262558  0.000000  0.262558  0  .  1
   Y  Y3  1  0.737442  1.000000  0.737442  0  .  1
   Y  Y4  1  0.737442  0.737442  1.000000  0  .  1
   Y  Y5  1  0.262558  0.262558  0.000000  0  .  1
   Y  Y6  1  1.000000  0.737442  0.737442  0  .  1
   Fe  Fe7  1  0.500000  0.500000  0.500000  0  .  1
   Fe  Fe8  1  0.500000  0.000000  0.000000  0  .  1
   Fe  Fe9  1  0.000000  0.500000  0.000000  0  .  1
   Fe  Fe10  1  0.000000  0.000000  0.500000  0  .  1
   Fe  Fe11  1  0.324670  0.662334  0.662334  0  .  1
   Fe  Fe12  1  0.662334  1.000000  0.337666  0  .  1
   Fe  Fe13  1  0.662334  0.324670  0.662334  0  .  1
   Fe  Fe14  1  0.662334  0.662334  0.324670  0  .  1
   Fe  Fe15  1  0.662334  0.337666  0.000000  0  .  1
   Fe  Fe16  1  1.000000  0.662334  0.337666  0  .  1
   Fe  Fe17  1  0.000000  0.337666  0.662334  0  .  1
   Fe  Fe18  1  0.337666  0.337666  0.675330  0  .  1
   Fe  Fe19  1  0.337666  0.000000  0.662334  0  .  1
   Fe  Fe20  1  0.337666  0.662334  1.000000  0  .  1
   Fe  Fe21  1  0.337666  0.675330  0.337666  0  .  1
   Fe  Fe22  1  0.675330  0.337666  0.337666  0  .  1
   O  O23  1  0.000000  0.000000  0.000000  0  .  1
 
