#\#CIF1.1
##########################################################################
#               Crystallographic Information Format file 
#               Produced by PyCifRW module
# 
#  This is a CIF file.  CIF has been adopted by the International
#  Union of Crystallography as the standard for data archiving and 
#  transmission.
#
#  For information on this file format, follow the CIF links at
#  http://www.iucr.org
##########################################################################

data_Yb(PRu)2
_symmetry_space_group_name_H-M          'P 1'
_cell_length_a                          4.07159261616
_cell_length_b                          4.0715929296
_cell_length_c                          5.59821152843
_cell_angle_alpha                       111.324600766
_cell_angle_beta                        111.324602436
_cell_angle_gamma                       89.999992679
_chemical_name_systematic               'Generated by pymatgen'
_symmetry_Int_Tables_number             1
_chemical_formula_structural            Yb(PRu)2
_chemical_formula_sum                   'Yb1 P2 Ru2'
_cell_volume                            79.5928235033
_cell_formula_units_Z                   1
loop_
  _symmetry_equiv_pos_site_id
  _symmetry_equiv_pos_as_xyz
   1  'x, y, z'
 
loop_
  _atom_site_type_symbol
  _atom_site_label
  _atom_site_symmetry_multiplicity
  _atom_site_fract_x
  _atom_site_fract_y
  _atom_site_fract_z
  _atom_site_attached_hydrogens
  _atom_site_B_iso_or_equiv
  _atom_site_occupancy
   Yb  Yb1  1  0.000000  0.000000  0.000000  0  .  1
   P  P2  1  0.370233  0.370233  0.740466  0  .  1
   P  P3  1  0.629767  0.629767  0.259534  0  .  1
   Ru  Ru4  1  0.750000  0.250000  0.500000  0  .  1
   Ru  Ru5  1  0.250000  0.750000  0.500000  0  .  1
 
