#\#CIF1.1
##########################################################################
#               Crystallographic Information Format file 
#               Produced by PyCifRW module
# 
#  This is a CIF file.  CIF has been adopted by the International
#  Union of Crystallography as the standard for data archiving and 
#  transmission.
#
#  For information on this file format, follow the CIF links at
#  http://www.iucr.org
##########################################################################

data_Yb(SiCu)2
_symmetry_space_group_name_H-M          'P 1'
_cell_length_a                          4.03660101831
_cell_length_b                          4.03660101981
_cell_length_c                          5.67210434407
_cell_angle_alpha                       110.844274322
_cell_angle_beta                        110.84427431
_cell_angle_gamma                       90.0000000097
_chemical_name_systematic               'Generated by pymatgen'
_symmetry_Int_Tables_number             1
_chemical_formula_structural            Yb(SiCu)2
_chemical_formula_sum                   'Yb1 Si2 Cu2'
_cell_volume                            79.8674135706
_cell_formula_units_Z                   1
loop_
  _symmetry_equiv_pos_site_id
  _symmetry_equiv_pos_as_xyz
   1  'x, y, z'
 
loop_
  _atom_site_type_symbol
  _atom_site_label
  _atom_site_symmetry_multiplicity
  _atom_site_fract_x
  _atom_site_fract_y
  _atom_site_fract_z
  _atom_site_attached_hydrogens
  _atom_site_B_iso_or_equiv
  _atom_site_occupancy
   Si  Si1  1  0.619240  0.619240  0.238481  0  .  1
   Si  Si2  1  0.380760  0.380760  0.761519  0  .  1
   Cu  Cu3  1  0.250000  0.750000  0.500000  0  .  1
   Cu  Cu4  1  0.750000  0.250000  0.500000  0  .  1
   Yb  Yb5  1  0.000000  0.000000  0.000000  0  .  1
 
