#\#CIF1.1
##########################################################################
#               Crystallographic Information Format file 
#               Produced by PyCifRW module
# 
#  This is a CIF file.  CIF has been adopted by the International
#  Union of Crystallography as the standard for data archiving and 
#  transmission.
#
#  For information on this file format, follow the CIF links at
#  http://www.iucr.org
##########################################################################

data_YFeO3
_symmetry_space_group_name_H-M          'P 1'
_cell_length_a                          5.34797075
_cell_length_b                          5.6613651
_cell_length_c                          7.72971035
_cell_angle_alpha                       90.0
_cell_angle_beta                        90.0
_cell_angle_gamma                       90.0
_chemical_name_systematic               'Generated by pymatgen'
_symmetry_Int_Tables_number             1
_chemical_formula_structural            YFeO3
_chemical_formula_sum                   'Y4 Fe4 O12'
_cell_volume                            234.03100996
_cell_formula_units_Z                   4
loop_
  _symmetry_equiv_pos_site_id
  _symmetry_equiv_pos_as_xyz
   1  'x, y, z'
 
loop_
  _atom_site_type_symbol
  _atom_site_label
  _atom_site_symmetry_multiplicity
  _atom_site_fract_x
  _atom_site_fract_y
  _atom_site_fract_z
  _atom_site_attached_hydrogens
  _atom_site_B_iso_or_equiv
  _atom_site_occupancy
   O  O1  1  0.691758  0.305545  0.440683  0  .  1
   O  O2  1  0.191758  0.194454  0.559316  0  .  1
   O  O3  1  0.808242  0.805545  0.059317  0  .  1
   O  O4  1  0.308242  0.694454  0.940683  0  .  1
   O  O5  1  0.308242  0.694454  0.559316  0  .  1
   O  O6  1  0.808242  0.805545  0.440683  0  .  1
   O  O7  1  0.191758  0.194454  0.940683  0  .  1
   O  O8  1  0.691758  0.305545  0.059317  0  .  1
   O  O9  1  0.115642  0.456404  0.250001  0  .  1
   O  O10  1  0.615642  0.043596  0.750001  0  .  1
   O  O11  1  0.884358  0.543596  0.750001  0  .  1
   O  O12  1  0.384358  0.956404  0.250001  0  .  1
   Fe  Fe13  1  0.000000  0.500000  0.500000  0  .  1
   Fe  Fe14  1  0.500000  0.000000  0.500000  0  .  1
   Fe  Fe15  1  0.500000  0.000000  0.000000  0  .  1
   Fe  Fe16  1  0.000000  0.500000  0.000000  0  .  1
   Y  Y17  1  0.018776  0.931584  0.750001  0  .  1
   Y  Y18  1  0.518776  0.568415  0.250001  0  .  1
   Y  Y19  1  0.481224  0.431585  0.750001  0  .  1
   Y  Y20  1  0.981224  0.068415  0.250001  0  .  1
 
