#\#CIF1.1
##########################################################################
#               Crystallographic Information Format file 
#               Produced by PyCifRW module
# 
#  This is a CIF file.  CIF has been adopted by the International
#  Union of Crystallography as the standard for data archiving and 
#  transmission.
#
#  For information on this file format, follow the CIF links at
#  http://www.iucr.org
##########################################################################

data_YMnO3
_symmetry_space_group_name_H-M          'P 1'
_cell_length_a                          6.23302198
_cell_length_b                          6.23302198257
_cell_length_c                          11.58909017
_cell_angle_alpha                       90.0
_cell_angle_beta                        90.0
_cell_angle_gamma                       119.999999986
_chemical_name_systematic               'Generated by pymatgen'
_symmetry_Int_Tables_number             1
_chemical_formula_structural            YMnO3
_chemical_formula_sum                   'Y6 Mn6 O18'
_cell_volume                            389.921597057
_cell_formula_units_Z                   6
loop_
  _symmetry_equiv_pos_site_id
  _symmetry_equiv_pos_as_xyz
   1  'x, y, z'
 
loop_
  _atom_site_type_symbol
  _atom_site_label
  _atom_site_symmetry_multiplicity
  _atom_site_fract_x
  _atom_site_fract_y
  _atom_site_fract_z
  _atom_site_attached_hydrogens
  _atom_site_B_iso_or_equiv
  _atom_site_occupancy
   O  O1  1  0.666667  0.333333  0.021222  0  .  1
   O  O2  1  0.333333  0.666667  0.521222  0  .  1
   O  O3  1  0.666667  0.333333  0.521222  0  .  1
   O  O4  1  0.333333  0.666667  0.021222  0  .  1
   O  O5  1  0.000000  0.000000  0.977540  0  .  1
   O  O6  1  0.000000  0.000000  0.477540  0  .  1
   O  O7  1  0.358595  0.000000  0.837277  0  .  1
   O  O8  1  0.358595  0.358595  0.337277  0  .  1
   O  O9  1  0.000000  0.641405  0.337277  0  .  1
   O  O10  1  0.000000  0.358595  0.837277  0  .  1
   O  O11  1  0.641405  0.641405  0.837277  0  .  1
   O  O12  1  0.641405  0.000000  0.337277  0  .  1
   O  O13  1  0.307715  0.000000  0.165664  0  .  1
   O  O14  1  0.307715  0.307715  0.665664  0  .  1
   O  O15  1  0.000000  0.692285  0.665664  0  .  1
   O  O16  1  0.000000  0.307715  0.165664  0  .  1
   O  O17  1  0.692285  0.692285  0.165664  0  .  1
   O  O18  1  0.692285  0.000000  0.665664  0  .  1
   Mn  Mn19  1  0.666399  0.000000  0.501375  0  .  1
   Mn  Mn20  1  0.666399  0.666399  0.001375  0  .  1
   Mn  Mn21  1  0.000000  0.333601  0.001375  0  .  1
   Mn  Mn22  1  0.000000  0.666399  0.501375  0  .  1
   Mn  Mn23  1  0.333601  0.333601  0.501375  0  .  1
   Mn  Mn24  1  0.333601  0.000000  0.001375  0  .  1
   Y  Y25  1  0.666667  0.333333  0.233045  0  .  1
   Y  Y26  1  0.333333  0.666667  0.733045  0  .  1
   Y  Y27  1  0.666667  0.333333  0.733045  0  .  1
   Y  Y28  1  0.333333  0.666667  0.233045  0  .  1
   Y  Y29  1  0.000000  0.000000  0.775978  0  .  1
   Y  Y30  1  0.000000  0.000000  0.275978  0  .  1
 
