#\#CIF1.1
##########################################################################
#               Crystallographic Information Format file 
#               Produced by PyCifRW module
# 
#  This is a CIF file.  CIF has been adopted by the International
#  Union of Crystallography as the standard for data archiving and 
#  transmission.
#
#  For information on this file format, follow the CIF links at
#  http://www.iucr.org
##########################################################################

data_YVO3
_symmetry_space_group_name_H-M          'P 1'
_cell_length_a                          5.34342419
_cell_length_b                          5.74969529953
_cell_length_c                          7.65569178658
_cell_angle_alpha                       89.9999687582
_cell_angle_beta                        90.0
_cell_angle_gamma                       90.0
_chemical_name_systematic               'Generated by pymatgen'
_symmetry_Int_Tables_number             1
_chemical_formula_structural            YVO3
_chemical_formula_sum                   'Y4 V4 O12'
_cell_volume                            235.206285363
_cell_formula_units_Z                   4
loop_
  _symmetry_equiv_pos_site_id
  _symmetry_equiv_pos_as_xyz
   1  'x, y, z'
 
loop_
  _atom_site_type_symbol
  _atom_site_label
  _atom_site_symmetry_multiplicity
  _atom_site_fract_x
  _atom_site_fract_y
  _atom_site_fract_z
  _atom_site_attached_hydrogens
  _atom_site_B_iso_or_equiv
  _atom_site_occupancy
   O  O1  1  0.805129  0.188835  0.441139  0  .  1
   O  O2  1  0.305129  0.311165  0.558861  0  .  1
   O  O3  1  0.194871  0.811165  0.558861  0  .  1
   O  O4  1  0.694871  0.688835  0.441139  0  .  1
   O  O5  1  0.194870  0.811166  0.941141  0  .  1
   O  O6  1  0.694870  0.688834  0.058859  0  .  1
   O  O7  1  0.805130  0.188834  0.058859  0  .  1
   O  O8  1  0.305130  0.311166  0.941141  0  .  1
   O  O9  1  0.882605  0.453385  0.750000  0  .  1
   O  O10  1  0.382605  0.046615  0.250000  0  .  1
   O  O11  1  0.117395  0.546615  0.250000  0  .  1
   O  O12  1  0.617395  0.953385  0.750000  0  .  1
   V  V13  1  0.000000  0.500000  0.500000  0  .  1
   V  V14  1  0.500000  0.000000  0.500000  0  .  1
   V  V15  1  0.000000  0.500000  0.000000  0  .  1
   V  V16  1  0.500000  0.000000  0.000000  0  .  1
   Y  Y17  1  0.480127  0.569787  0.750001  0  .  1
   Y  Y18  1  0.980127  0.930213  0.249999  0  .  1
   Y  Y19  1  0.519873  0.430213  0.249999  0  .  1
   Y  Y20  1  0.019873  0.069787  0.750001  0  .  1
 
