#\#CIF1.1
##########################################################################
#               Crystallographic Information Format file 
#               Produced by PyCifRW module
# 
#  This is a CIF file.  CIF has been adopted by the International
#  Union of Crystallography as the standard for data archiving and 
#  transmission.
#
#  For information on this file format, follow the CIF links at
#  http://www.iucr.org
##########################################################################

data_ZrNCl
_symmetry_space_group_name_H-M          'P 1'
_cell_length_a                          9.89271380501
_cell_length_b                          9.89271388759
_cell_length_c                          9.89271399905
_cell_angle_alpha                       21.2369714708
_cell_angle_beta                        21.2369702723
_cell_angle_gamma                       21.2369710433
_chemical_name_systematic               'Generated by pymatgen'
_symmetry_Int_Tables_number             1
_chemical_formula_structural            ZrNCl
_chemical_formula_sum                   'Zr2 N2 Cl2'
_cell_volume                            111.270127541
_cell_formula_units_Z                   2
loop_
  _symmetry_equiv_pos_site_id
  _symmetry_equiv_pos_as_xyz
   1  'x, y, z'
 
loop_
  _atom_site_type_symbol
  _atom_site_label
  _atom_site_symmetry_multiplicity
  _atom_site_fract_x
  _atom_site_fract_y
  _atom_site_fract_z
  _atom_site_attached_hydrogens
  _atom_site_B_iso_or_equiv
  _atom_site_occupancy
   Zr  Zr1  1  0.787870  0.787870  0.787870  0  .  1
   Zr  Zr2  1  0.212130  0.212130  0.212130  0  .  1
   N  N3  1  0.863251  0.863251  0.863251  0  .  1
   N  N4  1  0.136749  0.136749  0.136749  0  .  1
   Cl  Cl5  1  0.391922  0.391922  0.391922  0  .  1
   Cl  Cl6  1  0.608078  0.608078  0.608078  0  .  1
 
