#\#CIF1.1
##########################################################################
#               Crystallographic Information Format file 
#               Produced by PyCifRW module
# 
#  This is a CIF file.  CIF has been adopted by the International
#  Union of Crystallography as the standard for data archiving and 
#  transmission.
#
#  For information on this file format, follow the CIF links at
#  http://www.iucr.org
##########################################################################

data_AsI3
_symmetry_space_group_name_H-M          'P 1'
_cell_length_a                          8.61184293548
_cell_length_b                          8.61184293071
_cell_length_c                          8.6118429353
_cell_angle_alpha                       51.072335462
_cell_angle_beta                        51.0723354736
_cell_angle_gamma                       51.0723354662
_chemical_name_systematic               'Generated by pymatgen'
_symmetry_Int_Tables_number             1
_chemical_formula_structural            AsI3
_chemical_formula_sum                   'As2 I6'
_cell_volume                            356.590964528
_cell_formula_units_Z                   2
loop_
  _symmetry_equiv_pos_site_id
  _symmetry_equiv_pos_as_xyz
   1  'x, y, z'
 
loop_
  _atom_site_type_symbol
  _atom_site_label
  _atom_site_symmetry_multiplicity
  _atom_site_fract_x
  _atom_site_fract_y
  _atom_site_fract_z
  _atom_site_attached_hydrogens
  _atom_site_B_iso_or_equiv
  _atom_site_occupancy
   As  As1  1  0.180251  0.180251  0.180251  0  .  1
   As  As2  1  0.819749  0.819749  0.819749  0  .  1
   I  I3  1  0.433588  0.057891  0.778052  0  .  1
   I  I4  1  0.778052  0.433588  0.057891  0  .  1
   I  I5  1  0.057891  0.778052  0.433588  0  .  1
   I  I6  1  0.566412  0.942109  0.221948  0  .  1
   I  I7  1  0.221948  0.566412  0.942109  0  .  1
   I  I8  1  0.942109  0.221948  0.566412  0  .  1
 
