#\#CIF1.1
##########################################################################
#               Crystallographic Information Format file 
#               Produced by PyCifRW module
# 
#  This is a CIF file.  CIF has been adopted by the International
#  Union of Crystallography as the standard for data archiving and 
#  transmission.
#
#  For information on this file format, follow the CIF links at
#  http://www.iucr.org
##########################################################################

data_Ba(BRh)2
_symmetry_space_group_name_H-M          'P 1'
_cell_length_a                          3.9449678287
_cell_length_b                          3.94496783244
_cell_length_c                          6.39491855349
_cell_angle_alpha                       107.965574727
_cell_angle_beta                        107.96557475
_cell_angle_gamma                       89.9999999301
_chemical_name_systematic               'Generated by pymatgen'
_symmetry_Int_Tables_number             1
_chemical_formula_structural            Ba(BRh)2
_chemical_formula_sum                   'Ba1 B2 Rh2'
_cell_volume                            89.555057279
_cell_formula_units_Z                   1
loop_
  _symmetry_equiv_pos_site_id
  _symmetry_equiv_pos_as_xyz
   1  'x, y, z'
 
loop_
  _atom_site_type_symbol
  _atom_site_label
  _atom_site_symmetry_multiplicity
  _atom_site_fract_x
  _atom_site_fract_y
  _atom_site_fract_z
  _atom_site_attached_hydrogens
  _atom_site_B_iso_or_equiv
  _atom_site_occupancy
   B  B1  1  0.683298  0.683298  0.366595  0  .  1
   B  B2  1  0.316702  0.316702  0.633405  0  .  1
   Rh  Rh3  1  0.250000  0.750000  0.500000  0  .  1
   Rh  Rh4  1  0.750000  0.250000  0.500000  0  .  1
   Ba  Ba5  1  0.000000  0.000000  0.000000  0  .  1
 
