#\#CIF1.1
##########################################################################
#               Crystallographic Information Format file 
#               Produced by PyCifRW module
# 
#  This is a CIF file.  CIF has been adopted by the International
#  Union of Crystallography as the standard for data archiving and 
#  transmission.
#
#  For information on this file format, follow the CIF links at
#  http://www.iucr.org
##########################################################################

data_Ba(CuSe)2
_symmetry_space_group_name_H-M          'P 1'
_cell_length_a                          4.22958762
_cell_length_b                          9.62848311
_cell_length_c                          10.86842084
_cell_angle_alpha                       90.0
_cell_angle_beta                        90.0
_cell_angle_gamma                       90.0
_chemical_name_systematic               'Generated by pymatgen'
_symmetry_Int_Tables_number             1
_chemical_formula_structural            Ba(CuSe)2
_chemical_formula_sum                   'Ba4 Cu8 Se8'
_cell_volume                            442.611145369
_cell_formula_units_Z                   4
loop_
  _symmetry_equiv_pos_site_id
  _symmetry_equiv_pos_as_xyz
   1  'x, y, z'
 
loop_
  _atom_site_type_symbol
  _atom_site_label
  _atom_site_symmetry_multiplicity
  _atom_site_fract_x
  _atom_site_fract_y
  _atom_site_fract_z
  _atom_site_attached_hydrogens
  _atom_site_B_iso_or_equiv
  _atom_site_occupancy
   Cu  Cu1  1  0.250000  0.078208  0.543089  0  .  1
   Cu  Cu2  1  0.750000  0.921792  0.456911  0  .  1
   Cu  Cu3  1  0.750000  0.421792  0.043089  0  .  1
   Cu  Cu4  1  0.250000  0.578208  0.956911  0  .  1
   Cu  Cu5  1  0.750000  0.944060  0.888153  0  .  1
   Cu  Cu6  1  0.250000  0.055940  0.111847  0  .  1
   Cu  Cu7  1  0.750000  0.444060  0.611847  0  .  1
   Cu  Cu8  1  0.250000  0.555940  0.388153  0  .  1
   Se  Se9  1  0.250000  0.841148  0.961137  0  .  1
   Se  Se10  1  0.750000  0.158852  0.038863  0  .  1
   Se  Se11  1  0.750000  0.658852  0.461137  0  .  1
   Se  Se12  1  0.250000  0.341148  0.538863  0  .  1
   Se  Se13  1  0.750000  0.522153  0.830702  0  .  1
   Se  Se14  1  0.250000  0.477847  0.169298  0  .  1
   Se  Se15  1  0.750000  0.022153  0.669298  0  .  1
   Se  Se16  1  0.250000  0.977847  0.330702  0  .  1
   Ba  Ba17  1  0.750000  0.757736  0.177084  0  .  1
   Ba  Ba18  1  0.250000  0.242264  0.822916  0  .  1
   Ba  Ba19  1  0.750000  0.257736  0.322916  0  .  1
   Ba  Ba20  1  0.250000  0.742264  0.677084  0  .  1
 
