#\#CIF1.1
##########################################################################
#               Crystallographic Information Format file 
#               Produced by PyCifRW module
# 
#  This is a CIF file.  CIF has been adopted by the International
#  Union of Crystallography as the standard for data archiving and 
#  transmission.
#
#  For information on this file format, follow the CIF links at
#  http://www.iucr.org
##########################################################################

data_Ba(CuP2)2
_symmetry_space_group_name_H-M          'P 1'
_cell_length_a                          5.46584602453
_cell_length_b                          5.81284039773
_cell_length_c                          9.9199011815
_cell_angle_alpha                       82.5577611645
_cell_angle_beta                        74.0082452961
_cell_angle_gamma                       61.9557918101
_chemical_name_systematic               'Generated by pymatgen'
_symmetry_Int_Tables_number             1
_chemical_formula_structural            Ba(CuP2)2
_chemical_formula_sum                   'Ba2 Cu4 P8'
_cell_volume                            267.404850326
_cell_formula_units_Z                   2
loop_
  _symmetry_equiv_pos_site_id
  _symmetry_equiv_pos_as_xyz
   1  'x, y, z'
 
loop_
  _atom_site_type_symbol
  _atom_site_label
  _atom_site_symmetry_multiplicity
  _atom_site_fract_x
  _atom_site_fract_y
  _atom_site_fract_z
  _atom_site_attached_hydrogens
  _atom_site_B_iso_or_equiv
  _atom_site_occupancy
   Ba  Ba1  1  0.125000  0.750000  0.750000  0  .  1
   Ba  Ba2  1  0.875000  0.250000  0.250000  0  .  1
   Cu  Cu3  1  0.253419  0.250000  0.493161  0  .  1
   Cu  Cu4  1  0.746581  0.750000  0.506839  0  .  1
   Cu  Cu5  1  0.496581  0.250000  0.006839  0  .  1
   Cu  Cu6  1  0.503419  0.750000  0.993161  0  .  1
   P  P7  1  0.828992  0.368886  0.858181  0  .  1
   P  P8  1  0.312827  0.131114  0.858181  0  .  1
   P  P9  1  0.443942  0.868886  0.358181  0  .  1
   P  P10  1  0.556058  0.131114  0.641819  0  .  1
   P  P11  1  0.197878  0.631114  0.358181  0  .  1
   P  P12  1  0.687173  0.868886  0.141819  0  .  1
   P  P13  1  0.802122  0.368886  0.641819  0  .  1
   P  P14  1  0.171008  0.631114  0.141819  0  .  1
 
