#\#CIF1.1
##########################################################################
#               Crystallographic Information Format file 
#               Produced by PyCifRW module
# 
#  This is a CIF file.  CIF has been adopted by the International
#  Union of Crystallography as the standard for data archiving and 
#  transmission.
#
#  For information on this file format, follow the CIF links at
#  http://www.iucr.org
##########################################################################

data_Ba(CuO)2
_symmetry_space_group_name_H-M          'P 1'
_cell_length_a                          5.79748460598
_cell_length_b                          5.79748460617
_cell_length_c                          6.52359170363
_cell_angle_alpha                       116.381605821
_cell_angle_beta                        116.381605779
_cell_angle_gamma                       90.000000014
_chemical_name_systematic               'Generated by pymatgen'
_symmetry_Int_Tables_number             1
_chemical_formula_structural            Ba(CuO)2
_chemical_formula_sum                   'Ba2 Cu4 O4'
_cell_volume                            170.562399686
_cell_formula_units_Z                   2
loop_
  _symmetry_equiv_pos_site_id
  _symmetry_equiv_pos_as_xyz
   1  'x, y, z'
 
loop_
  _atom_site_type_symbol
  _atom_site_label
  _atom_site_symmetry_multiplicity
  _atom_site_fract_x
  _atom_site_fract_y
  _atom_site_fract_z
  _atom_site_attached_hydrogens
  _atom_site_B_iso_or_equiv
  _atom_site_occupancy
   O  O1  1  0.612922  0.862922  0.225844  0  .  1
   O  O2  1  0.862922  0.612922  0.725844  0  .  1
   O  O3  1  0.387078  0.137078  0.774156  0  .  1
   O  O4  1  0.137078  0.387078  0.274156  0  .  1
   Cu  Cu5  1  0.500000  0.500000  0.500000  0  .  1
   Cu  Cu6  1  0.500000  0.000000  0.000000  0  .  1
   Cu  Cu7  1  0.000000  0.500000  0.500000  0  .  1
   Cu  Cu8  1  0.500000  0.500000  0.000000  0  .  1
   Ba  Ba9  1  0.875000  0.125000  0.750000  0  .  1
   Ba  Ba10  1  0.125000  0.875000  0.250000  0  .  1
 
