#\#CIF1.1
##########################################################################
#               Crystallographic Information Format file 
#               Produced by PyCifRW module
# 
#  This is a CIF file.  CIF has been adopted by the International
#  Union of Crystallography as the standard for data archiving and 
#  transmission.
#
#  For information on this file format, follow the CIF links at
#  http://www.iucr.org
##########################################################################

data_Ba(CuS)2
_symmetry_space_group_name_H-M          'P 1'
_cell_length_a                          3.91942080988
_cell_length_b                          3.91942081136
_cell_length_c                          6.89707185394
_cell_angle_alpha                       106.507244624
_cell_angle_beta                        106.507244652
_cell_angle_gamma                       89.9999999937
_chemical_name_systematic               'Generated by pymatgen'
_symmetry_Int_Tables_number             1
_chemical_formula_structural            Ba(CuS)2
_chemical_formula_sum                   'Ba1 Cu2 S2'
_cell_volume                            97.0216305355
_cell_formula_units_Z                   1
loop_
  _symmetry_equiv_pos_site_id
  _symmetry_equiv_pos_as_xyz
   1  'x, y, z'
 
loop_
  _atom_site_type_symbol
  _atom_site_label
  _atom_site_symmetry_multiplicity
  _atom_site_fract_x
  _atom_site_fract_y
  _atom_site_fract_z
  _atom_site_attached_hydrogens
  _atom_site_B_iso_or_equiv
  _atom_site_occupancy
   S  S1  1  0.639562  0.639562  0.279124  0  .  1
   S  S2  1  0.360438  0.360438  0.720876  0  .  1
   Cu  Cu3  1  0.250000  0.750000  0.500000  0  .  1
   Cu  Cu4  1  0.750000  0.250000  0.500000  0  .  1
   Ba  Ba5  1  0.000000  0.000000  0.000000  0  .  1
 
