#\#CIF1.1
##########################################################################
#               Crystallographic Information Format file 
#               Produced by PyCifRW module
# 
#  This is a CIF file.  CIF has been adopted by the International
#  Union of Crystallography as the standard for data archiving and 
#  transmission.
#
#  For information on this file format, follow the CIF links at
#  http://www.iucr.org
##########################################################################

data_Ba(CuAs)2
_symmetry_space_group_name_H-M          'P 1'
_cell_length_a                          4.29365680969
_cell_length_b                          4.29365680313
_cell_length_c                          6.44769142153
_cell_angle_alpha                       109.448582073
_cell_angle_beta                        109.448581973
_cell_angle_gamma                       89.9999999637
_chemical_name_systematic               'Generated by pymatgen'
_symmetry_Int_Tables_number             1
_chemical_formula_structural            Ba(CuAs)2
_chemical_formula_sum                   'Ba1 Cu2 As2'
_cell_volume                            104.863711775
_cell_formula_units_Z                   1
loop_
  _symmetry_equiv_pos_site_id
  _symmetry_equiv_pos_as_xyz
   1  'x, y, z'
 
loop_
  _atom_site_type_symbol
  _atom_site_label
  _atom_site_symmetry_multiplicity
  _atom_site_fract_x
  _atom_site_fract_y
  _atom_site_fract_z
  _atom_site_attached_hydrogens
  _atom_site_B_iso_or_equiv
  _atom_site_occupancy
   Cu  Cu1  1  0.750000  0.250000  0.500000  0  .  1
   Cu  Cu2  1  0.250000  0.750000  0.500000  0  .  1
   As  As3  1  0.638633  0.638633  0.277266  0  .  1
   As  As4  1  0.361367  0.361367  0.722734  0  .  1
   Ba  Ba5  1  0.000000  0.000000  0.000000  0  .  1
 
