#\#CIF1.1
##########################################################################
#               Crystallographic Information Format file 
#               Produced by PyCifRW module
# 
#  This is a CIF file.  CIF has been adopted by the International
#  Union of Crystallography as the standard for data archiving and 
#  transmission.
#
#  For information on this file format, follow the CIF links at
#  http://www.iucr.org
##########################################################################

data_Ba(Fe2O3)9
_symmetry_space_group_name_H-M          'P 1'
_cell_length_a                          6.02248803
_cell_length_b                          6.02248809141
_cell_length_c                          33.12366722
_cell_angle_alpha                       90.0
_cell_angle_beta                        90.0
_cell_angle_gamma                       120.00000573
_chemical_name_systematic               'Generated by pymatgen'
_symmetry_Int_Tables_number             1
_chemical_formula_structural            Ba(Fe2O3)9
_chemical_formula_sum                   'Ba2 Fe36 O54'
_cell_volume                            1040.449282
_cell_formula_units_Z                   2
loop_
  _symmetry_equiv_pos_site_id
  _symmetry_equiv_pos_as_xyz
   1  'x, y, z'
 
loop_
  _atom_site_type_symbol
  _atom_site_label
  _atom_site_symmetry_multiplicity
  _atom_site_fract_x
  _atom_site_fract_y
  _atom_site_fract_z
  _atom_site_attached_hydrogens
  _atom_site_B_iso_or_equiv
  _atom_site_occupancy
   Ba  Ba1  1  0.000000  0.000000  0.750000  0  .  1
   Ba  Ba2  1  0.000000  0.000000  0.250000  0  .  1
   Fe  Fe3  1  0.666667  0.333333  0.596667  0  .  1
   Fe  Fe4  1  0.333553  0.166776  0.149887  0  .  1
   Fe  Fe5  1  0.000000  0.000000  0.944420  0  .  1
   Fe  Fe6  1  0.833224  0.166776  0.149887  0  .  1
   Fe  Fe7  1  0.333333  0.666667  0.750000  0  .  1
   Fe  Fe8  1  0.000000  0.000000  0.555580  0  .  1
   Fe  Fe9  1  0.166776  0.333553  0.649887  0  .  1
   Fe  Fe10  1  0.666667  0.333333  0.903333  0  .  1
   Fe  Fe11  1  0.333333  0.666667  0.207870  0  .  1
   Fe  Fe12  1  0.833224  0.166776  0.350113  0  .  1
   Fe  Fe13  1  0.500000  0.000000  0.500000  0  .  1
   Fe  Fe14  1  0.000000  0.500000  0.500000  0  .  1
   Fe  Fe15  1  0.333333  0.666667  0.096667  0  .  1
   Fe  Fe16  1  0.500000  0.500000  0.000000  0  .  1
   Fe  Fe17  1  0.166776  0.833224  0.850113  0  .  1
   Fe  Fe18  1  0.333333  0.666667  0.403333  0  .  1
   Fe  Fe19  1  0.666667  0.333333  0.792130  0  .  1
   Fe  Fe20  1  0.000000  0.000000  0.444420  0  .  1
   Fe  Fe21  1  0.333553  0.166776  0.350113  0  .  1
   Fe  Fe22  1  0.666667  0.333333  0.426626  0  .  1
   Fe  Fe23  1  0.500000  0.000000  0.000000  0  .  1
   Fe  Fe24  1  0.333333  0.666667  0.573374  0  .  1
   Fe  Fe25  1  0.666667  0.333333  0.250000  0  .  1
   Fe  Fe26  1  0.500000  0.500000  0.500000  0  .  1
   Fe  Fe27  1  0.833224  0.666447  0.350113  0  .  1
   Fe  Fe28  1  0.333333  0.666667  0.926626  0  .  1
   Fe  Fe29  1  0.666447  0.833224  0.850113  0  .  1
   Fe  Fe30  1  0.833224  0.666447  0.149887  0  .  1
   Fe  Fe31  1  0.000000  0.000000  0.055580  0  .  1
   Fe  Fe32  1  0.666667  0.333333  0.707870  0  .  1
   Fe  Fe33  1  0.000000  0.500000  0.000000  0  .  1
   Fe  Fe34  1  0.166776  0.833224  0.649887  0  .  1
   Fe  Fe35  1  0.666447  0.833224  0.649887  0  .  1
   Fe  Fe36  1  0.166776  0.333553  0.850113  0  .  1
   Fe  Fe37  1  0.666667  0.333333  0.073374  0  .  1
   Fe  Fe38  1  0.333333  0.666667  0.292130  0  .  1
   O  O39  1  0.325979  0.162989  0.821363  0  .  1
   O  O40  1  0.488697  0.977396  0.610506  0  .  1
   O  O41  1  0.000000  0.000000  0.112469  0  .  1
   O  O42  1  0.174913  0.825087  0.534403  0  .  1
   O  O43  1  0.650174  0.825087  0.534403  0  .  1
   O  O44  1  0.674021  0.837011  0.178637  0  .  1
   O  O45  1  0.488697  0.977396  0.889494  0  .  1
   O  O46  1  0.977396  0.488697  0.389494  0  .  1
   O  O47  1  0.483905  0.967811  0.250000  0  .  1
   O  O48  1  0.837011  0.162989  0.678637  0  .  1
   O  O49  1  0.674021  0.837011  0.321363  0  .  1
   O  O50  1  0.511303  0.488697  0.110506  0  .  1
   O  O51  1  0.488697  0.511303  0.610506  0  .  1
   O  O52  1  0.511303  0.488697  0.389494  0  .  1
   O  O53  1  0.000000  0.000000  0.387531  0  .  1
   O  O54  1  0.666667  0.333333  0.319255  0  .  1
   O  O55  1  0.666667  0.333333  0.180745  0  .  1
   O  O56  1  0.511303  0.022604  0.389494  0  .  1
   O  O57  1  0.650174  0.825087  0.965597  0  .  1
   O  O58  1  0.825087  0.650174  0.465597  0  .  1
   O  O59  1  0.174913  0.825087  0.965597  0  .  1
   O  O60  1  0.967811  0.483905  0.750000  0  .  1
   O  O61  1  0.162989  0.837011  0.321363  0  .  1
   O  O62  1  0.325979  0.162989  0.678637  0  .  1
   O  O63  1  0.511303  0.022604  0.110506  0  .  1
   O  O64  1  0.349826  0.174913  0.465597  0  .  1
   O  O65  1  0.000000  0.000000  0.612469  0  .  1
   O  O66  1  0.162989  0.837011  0.178637  0  .  1
   O  O67  1  0.032189  0.516095  0.250000  0  .  1
   O  O68  1  0.483905  0.516095  0.250000  0  .  1
   O  O69  1  0.825087  0.650174  0.034403  0  .  1
   O  O70  1  0.666667  0.333333  0.966034  0  .  1
   O  O71  1  0.162989  0.325979  0.178637  0  .  1
   O  O72  1  0.488697  0.511303  0.889494  0  .  1
   O  O73  1  0.825087  0.174913  0.465597  0  .  1
   O  O74  1  0.837011  0.674021  0.821363  0  .  1
   O  O75  1  0.333333  0.666667  0.819255  0  .  1
   O  O76  1  0.162989  0.325979  0.321363  0  .  1
   O  O77  1  0.174913  0.349826  0.534403  0  .  1
   O  O78  1  0.516095  0.032189  0.750000  0  .  1
   O  O79  1  0.174913  0.349826  0.965597  0  .  1
   O  O80  1  0.333333  0.666667  0.680745  0  .  1
   O  O81  1  0.837011  0.674021  0.678637  0  .  1
   O  O82  1  0.000000  0.000000  0.887531  0  .  1
   O  O83  1  0.825087  0.174913  0.034403  0  .  1
   O  O84  1  0.333333  0.666667  0.033966  0  .  1
   O  O85  1  0.022604  0.511303  0.610506  0  .  1
   O  O86  1  0.666667  0.333333  0.533966  0  .  1
   O  O87  1  0.516095  0.483905  0.750000  0  .  1
   O  O88  1  0.349826  0.174913  0.034403  0  .  1
   O  O89  1  0.333333  0.666667  0.466034  0  .  1
   O  O90  1  0.022604  0.511303  0.889494  0  .  1
   O  O91  1  0.977396  0.488697  0.110506  0  .  1
   O  O92  1  0.837011  0.162989  0.821363  0  .  1
 
