#\#CIF1.1
##########################################################################
#               Crystallographic Information Format file 
#               Produced by PyCifRW module
# 
#  This is a CIF file.  CIF has been adopted by the International
#  Union of Crystallography as the standard for data archiving and 
#  transmission.
#
#  For information on this file format, follow the CIF links at
#  http://www.iucr.org
##########################################################################

data_Ba(FeS2)2
_symmetry_space_group_name_H-M          'P 1'
_cell_length_a                          5.21475904309
_cell_length_b                          6.13429868439
_cell_length_c                          6.13429876832
_cell_angle_alpha                       79.9120737515
_cell_angle_beta                        65.2174572681
_cell_angle_gamma                       65.2174552953
_chemical_name_systematic               'Generated by pymatgen'
_symmetry_Int_Tables_number             1
_chemical_formula_structural            Ba(FeS2)2
_chemical_formula_sum                   'Ba1 Fe2 S4'
_cell_volume                            161.750275353
_cell_formula_units_Z                   1
loop_
  _symmetry_equiv_pos_site_id
  _symmetry_equiv_pos_as_xyz
   1  'x, y, z'
 
loop_
  _atom_site_type_symbol
  _atom_site_label
  _atom_site_symmetry_multiplicity
  _atom_site_fract_x
  _atom_site_fract_y
  _atom_site_fract_z
  _atom_site_attached_hydrogens
  _atom_site_B_iso_or_equiv
  _atom_site_occupancy
   Ba  Ba1  1  0.750000  0.000664  0.999336  0  .  1
   Fe  Fe2  1  0.250000  0.500225  0.499775  0  .  1
   Fe  Fe3  1  0.750000  0.500309  0.499691  0  .  1
   S  S4  1  0.151514  0.499122  0.193513  0  .  1
   S  S5  1  0.348486  0.806487  0.500878  0  .  1
   S  S6  1  0.649988  0.194309  0.501116  0  .  1
   S  S7  1  0.850012  0.498884  0.805691  0  .  1
 
