#\#CIF1.1
##########################################################################
#               Crystallographic Information Format file 
#               Produced by PyCifRW module
# 
#  This is a CIF file.  CIF has been adopted by the International
#  Union of Crystallography as the standard for data archiving and 
#  transmission.
#
#  For information on this file format, follow the CIF links at
#  http://www.iucr.org
##########################################################################

data_Ba(FeO2)2
_symmetry_space_group_name_H-M          'P 1'
_cell_length_a                          5.50661514
_cell_length_b                          8.61790661824
_cell_length_c                          10.6331792858
_cell_angle_alpha                       113.905953891
_cell_angle_beta                        90.0
_cell_angle_gamma                       90.0
_chemical_name_systematic               'Generated by pymatgen'
_symmetry_Int_Tables_number             1
_chemical_formula_structural            Ba(FeO2)2
_chemical_formula_sum                   'Ba4 Fe8 O16'
_cell_volume                            461.313847479
_cell_formula_units_Z                   4
loop_
  _symmetry_equiv_pos_site_id
  _symmetry_equiv_pos_as_xyz
   1  'x, y, z'
 
loop_
  _atom_site_type_symbol
  _atom_site_label
  _atom_site_symmetry_multiplicity
  _atom_site_fract_x
  _atom_site_fract_y
  _atom_site_fract_z
  _atom_site_attached_hydrogens
  _atom_site_B_iso_or_equiv
  _atom_site_occupancy
   O  O1  1  0.141740  0.717305  0.434611  0  .  1
   O  O2  1  0.641740  0.282695  0.565389  0  .  1
   O  O3  1  0.256075  0.550884  0.101769  0  .  1
   O  O4  1  0.756075  0.449116  0.898231  0  .  1
   O  O5  1  0.094319  0.503423  0.582207  0  .  1
   O  O6  1  0.594319  0.496577  0.417793  0  .  1
   O  O7  1  0.094319  0.078785  0.582207  0  .  1
   O  O8  1  0.594319  0.921215  0.417793  0  .  1
   O  O9  1  0.621739  0.668232  0.746925  0  .  1
   O  O10  1  0.121739  0.331768  0.253075  0  .  1
   O  O11  1  0.621739  0.078694  0.746925  0  .  1
   O  O12  1  0.121739  0.921306  0.253075  0  .  1
   O  O13  1  0.602451  0.816420  0.076781  0  .  1
   O  O14  1  0.102451  0.183580  0.923219  0  .  1
   O  O15  1  0.602451  0.260361  0.076781  0  .  1
   O  O16  1  0.102451  0.739639  0.923219  0  .  1
   Fe  Fe17  1  0.747386  0.498554  0.580223  0  .  1
   Fe  Fe18  1  0.247386  0.501446  0.419777  0  .  1
   Fe  Fe19  1  0.747386  0.081669  0.580223  0  .  1
   Fe  Fe20  1  0.247386  0.918331  0.419777  0  .  1
   Fe  Fe21  1  0.768531  0.675923  0.912119  0  .  1
   Fe  Fe22  1  0.268531  0.324077  0.087881  0  .  1
   Fe  Fe23  1  0.768531  0.236196  0.912119  0  .  1
   Fe  Fe24  1  0.268531  0.763804  0.087881  0  .  1
   Ba  Ba25  1  0.275587  0.380084  0.760169  0  .  1
   Ba  Ba26  1  0.775587  0.619916  0.239831  0  .  1
   Ba  Ba27  1  0.242747  0.869821  0.739642  0  .  1
   Ba  Ba28  1  0.742746  0.130179  0.260358  0  .  1
 
