#\#CIF1.1
##########################################################################
#               Crystallographic Information Format file 
#               Produced by PyCifRW module
# 
#  This is a CIF file.  CIF has been adopted by the International
#  Union of Crystallography as the standard for data archiving and 
#  transmission.
#
#  For information on this file format, follow the CIF links at
#  http://www.iucr.org
##########################################################################

data_Ba(NiP2)2
_symmetry_space_group_name_H-M          'P 1'
_cell_length_a                          5.47599117273
_cell_length_b                          5.47599117347
_cell_length_c                          5.47599117354
_cell_angle_alpha                       106.176258475
_cell_angle_beta                        106.17625846
_cell_angle_gamma                       116.283542243
_chemical_name_systematic               'Generated by pymatgen'
_symmetry_Int_Tables_number             1
_chemical_formula_structural            Ba(NiP2)2
_chemical_formula_sum                   'Ba1 Ni2 P4'
_cell_volume                            125.050000076
_cell_formula_units_Z                   1
loop_
  _symmetry_equiv_pos_site_id
  _symmetry_equiv_pos_as_xyz
   1  'x, y, z'
 
loop_
  _atom_site_type_symbol
  _atom_site_label
  _atom_site_symmetry_multiplicity
  _atom_site_fract_x
  _atom_site_fract_y
  _atom_site_fract_z
  _atom_site_attached_hydrogens
  _atom_site_B_iso_or_equiv
  _atom_site_occupancy
   P  P1  1  0.500000  0.741942  0.241942  0  .  1
   P  P2  1  0.741942  0.500000  0.241942  0  .  1
   P  P3  1  0.258058  0.500000  0.758058  0  .  1
   P  P4  1  0.500000  0.258058  0.758058  0  .  1
   Ni  Ni5  1  0.250000  0.750000  0.500000  0  .  1
   Ni  Ni6  1  0.750000  0.250000  0.500000  0  .  1
   Ba  Ba7  1  0.000000  0.000000  0.000000  0  .  1
 
