#\#CIF1.1
##########################################################################
#               Crystallographic Information Format file 
#               Produced by PyCifRW module
# 
#  This is a CIF file.  CIF has been adopted by the International
#  Union of Crystallography as the standard for data archiving and 
#  transmission.
#
#  For information on this file format, follow the CIF links at
#  http://www.iucr.org
##########################################################################

data_Ba(NiP)2
_symmetry_space_group_name_H-M          'P 1'
_cell_length_a                          3.94729877233
_cell_length_b                          3.94729876734
_cell_length_c                          6.57328630468
_cell_angle_alpha                       107.472803685
_cell_angle_beta                        107.472803712
_cell_angle_gamma                       89.9999999983
_chemical_name_systematic               'Generated by pymatgen'
_symmetry_Int_Tables_number             1
_chemical_formula_structural            Ba(NiP)2
_chemical_formula_sum                   'Ba1 Ni2 P2'
_cell_volume                            92.7275969361
_cell_formula_units_Z                   1
loop_
  _symmetry_equiv_pos_site_id
  _symmetry_equiv_pos_as_xyz
   1  'x, y, z'
 
loop_
  _atom_site_type_symbol
  _atom_site_label
  _atom_site_symmetry_multiplicity
  _atom_site_fract_x
  _atom_site_fract_y
  _atom_site_fract_z
  _atom_site_attached_hydrogens
  _atom_site_B_iso_or_equiv
  _atom_site_occupancy
   P  P1  1  0.658829  0.658829  0.317659  0  .  1
   P  P2  1  0.341171  0.341171  0.682341  0  .  1
   Ni  Ni3  1  0.250000  0.750000  0.500000  0  .  1
   Ni  Ni4  1  0.750000  0.250000  0.500000  0  .  1
   Ba  Ba5  1  0.000000  0.000000  0.000000  0  .  1
 
