#\#CIF1.1
##########################################################################
#               Crystallographic Information Format file 
#               Produced by PyCifRW module
# 
#  This is a CIF file.  CIF has been adopted by the International
#  Union of Crystallography as the standard for data archiving and 
#  transmission.
#
#  For information on this file format, follow the CIF links at
#  http://www.iucr.org
##########################################################################

data_Ba(NiO2)4
_symmetry_space_group_name_H-M          'P 1'
_cell_length_a                          7.19883484516
_cell_length_b                          7.19883484437
_cell_length_c                          7.19883483433
_cell_angle_alpha                       46.8809220317
_cell_angle_beta                        46.8809220426
_cell_angle_gamma                       46.8809220409
_chemical_name_systematic               'Generated by pymatgen'
_symmetry_Int_Tables_number             1
_chemical_formula_structural            Ba(NiO2)4
_chemical_formula_sum                   'Ba1 Ni4 O8'
_cell_volume                            181.651684937
_cell_formula_units_Z                   1
loop_
  _symmetry_equiv_pos_site_id
  _symmetry_equiv_pos_as_xyz
   1  'x, y, z'
 
loop_
  _atom_site_type_symbol
  _atom_site_label
  _atom_site_symmetry_multiplicity
  _atom_site_fract_x
  _atom_site_fract_y
  _atom_site_fract_z
  _atom_site_attached_hydrogens
  _atom_site_B_iso_or_equiv
  _atom_site_occupancy
   O  O1  1  0.771205  0.302013  0.771205  0  .  1
   O  O2  1  0.228795  0.228795  0.697987  0  .  1
   O  O3  1  0.228795  0.697987  0.228795  0  .  1
   O  O4  1  0.697987  0.228795  0.228795  0  .  1
   O  O5  1  0.283115  0.283115  0.283115  0  .  1
   O  O6  1  0.716885  0.716885  0.716885  0  .  1
   O  O7  1  0.771205  0.771205  0.302013  0  .  1
   O  O8  1  0.302013  0.771205  0.771205  0  .  1
   Ni  Ni9  1  0.000000  0.000000  0.000000  0  .  1
   Ni  Ni10  1  0.500000  0.000000  0.500000  0  .  1
   Ni  Ni11  1  0.500000  0.500000  0.000000  0  .  1
   Ni  Ni12  1  0.000000  0.500000  0.500000  0  .  1
   Ba  Ba13  1  0.500000  0.500000  0.500000  0  .  1
 
