#\#CIF1.1
##########################################################################
#               Crystallographic Information Format file 
#               Produced by PyCifRW module
# 
#  This is a CIF file.  CIF has been adopted by the International
#  Union of Crystallography as the standard for data archiving and 
#  transmission.
#
#  For information on this file format, follow the CIF links at
#  http://www.iucr.org
##########################################################################

data_Ba(PRu)2
_symmetry_space_group_name_H-M          'P 1'
_cell_length_a                          4.07138294032
_cell_length_b                          4.07138294331
_cell_length_c                          6.76213221074
_cell_angle_alpha                       107.520249156
_cell_angle_beta                        107.520249224
_cell_angle_gamma                       90.0000000111
_chemical_name_systematic               'Generated by pymatgen'
_symmetry_Int_Tables_number             1
_chemical_formula_structural            Ba(PRu)2
_chemical_formula_sum                   'Ba1 P2 Ru2'
_cell_volume                            101.424358554
_cell_formula_units_Z                   1
loop_
  _symmetry_equiv_pos_site_id
  _symmetry_equiv_pos_as_xyz
   1  'x, y, z'
 
loop_
  _atom_site_type_symbol
  _atom_site_label
  _atom_site_symmetry_multiplicity
  _atom_site_fract_x
  _atom_site_fract_y
  _atom_site_fract_z
  _atom_site_attached_hydrogens
  _atom_site_B_iso_or_equiv
  _atom_site_occupancy
   P  P1  1  0.656907  0.656907  0.313815  0  .  1
   P  P2  1  0.343093  0.343093  0.686185  0  .  1
   Ru  Ru3  1  0.250000  0.750000  0.500000  0  .  1
   Ru  Ru4  1  0.750000  0.250000  0.500000  0  .  1
   Ba  Ba5  1  0.000000  0.000000  0.000000  0  .  1
 
