#\#CIF1.1
##########################################################################
#               Crystallographic Information Format file 
#               Produced by PyCifRW module
# 
#  This is a CIF file.  CIF has been adopted by the International
#  Union of Crystallography as the standard for data archiving and 
#  transmission.
#
#  For information on this file format, follow the CIF links at
#  http://www.iucr.org
##########################################################################

data_Ba15Fe7S25
_symmetry_space_group_name_H-M          'P 1'
_cell_length_a                          9.61660911
_cell_length_b                          12.75711116
_cell_length_c                          42.30323892
_cell_angle_alpha                       90.0
_cell_angle_beta                        90.0
_cell_angle_gamma                       90.0
_chemical_name_systematic               'Generated by pymatgen'
_symmetry_Int_Tables_number             1
_chemical_formula_structural            Ba15Fe7S25
_chemical_formula_sum                   'Ba60 Fe28 S100'
_cell_volume                            5189.76775535
_cell_formula_units_Z                   4
loop_
  _symmetry_equiv_pos_site_id
  _symmetry_equiv_pos_as_xyz
   1  'x, y, z'
 
loop_
  _atom_site_type_symbol
  _atom_site_label
  _atom_site_symmetry_multiplicity
  _atom_site_fract_x
  _atom_site_fract_y
  _atom_site_fract_z
  _atom_site_attached_hydrogens
  _atom_site_B_iso_or_equiv
  _atom_site_occupancy
   Ba  Ba1  1  0.250000  0.514784  0.586621  0  .  1
   Ba  Ba2  1  0.750000  0.080338  0.314225  0  .  1
   Ba  Ba3  1  0.015381  0.778037  0.784825  0  .  1
   Ba  Ba4  1  0.250000  0.956199  0.476161  0  .  1
   Ba  Ba5  1  0.974472  0.158558  0.014842  0  .  1
   Ba  Ba6  1  0.515381  0.278037  0.715175  0  .  1
   Ba  Ba7  1  0.530143  0.394079  0.315403  0  .  1
   Ba  Ba8  1  0.530143  0.105921  0.815403  0  .  1
   Ba  Ba9  1  0.987127  0.656518  0.891286  0  .  1
   Ba  Ba10  1  0.015381  0.721963  0.284825  0  .  1
   Ba  Ba11  1  0.496470  0.296629  0.906315  0  .  1
   Ba  Ba12  1  0.469857  0.894079  0.184597  0  .  1
   Ba  Ba13  1  0.030143  0.605921  0.684597  0  .  1
   Ba  Ba14  1  0.484619  0.721963  0.284825  0  .  1
   Ba  Ba15  1  0.750000  0.498832  0.225316  0  .  1
   Ba  Ba16  1  0.512873  0.843482  0.391286  0  .  1
   Ba  Ba17  1  0.987127  0.843482  0.391286  0  .  1
   Ba  Ba18  1  0.525528  0.341442  0.514842  0  .  1
   Ba  Ba19  1  0.503530  0.703371  0.093685  0  .  1
   Ba  Ba20  1  0.750000  0.043801  0.523839  0  .  1
   Ba  Ba21  1  0.003530  0.296629  0.906315  0  .  1
   Ba  Ba22  1  0.012873  0.343482  0.108714  0  .  1
   Ba  Ba23  1  0.250000  0.919662  0.685775  0  .  1
   Ba  Ba24  1  0.996470  0.703371  0.093685  0  .  1
   Ba  Ba25  1  0.750000  0.485216  0.413379  0  .  1
   Ba  Ba26  1  0.750000  0.001168  0.725316  0  .  1
   Ba  Ba27  1  0.487127  0.156518  0.608714  0  .  1
   Ba  Ba28  1  0.250000  0.501168  0.774684  0  .  1
   Ba  Ba29  1  0.525528  0.158558  0.014842  0  .  1
   Ba  Ba30  1  0.515381  0.221963  0.215175  0  .  1
   Ba  Ba31  1  0.025528  0.841442  0.985158  0  .  1
   Ba  Ba32  1  0.025528  0.658558  0.485158  0  .  1
   Ba  Ba33  1  0.969857  0.394079  0.315403  0  .  1
   Ba  Ba34  1  0.474472  0.841442  0.985158  0  .  1
   Ba  Ba35  1  0.512873  0.656518  0.891286  0  .  1
   Ba  Ba36  1  0.750000  0.456199  0.023839  0  .  1
   Ba  Ba37  1  0.030143  0.894079  0.184597  0  .  1
   Ba  Ba38  1  0.250000  0.998832  0.274684  0  .  1
   Ba  Ba39  1  0.250000  0.558109  0.387788  0  .  1
   Ba  Ba40  1  0.750000  0.014784  0.913379  0  .  1
   Ba  Ba41  1  0.484619  0.778037  0.784825  0  .  1
   Ba  Ba42  1  0.750000  0.058109  0.112212  0  .  1
   Ba  Ba43  1  0.469857  0.605921  0.684597  0  .  1
   Ba  Ba44  1  0.487127  0.343482  0.108714  0  .  1
   Ba  Ba45  1  0.250000  0.543801  0.976161  0  .  1
   Ba  Ba46  1  0.984619  0.278037  0.715175  0  .  1
   Ba  Ba47  1  0.974472  0.341442  0.514842  0  .  1
   Ba  Ba48  1  0.503530  0.796629  0.593685  0  .  1
   Ba  Ba49  1  0.996470  0.796629  0.593685  0  .  1
   Ba  Ba50  1  0.984619  0.221963  0.215175  0  .  1
   Ba  Ba51  1  0.250000  0.580338  0.185775  0  .  1
   Ba  Ba52  1  0.003530  0.203371  0.406315  0  .  1
   Ba  Ba53  1  0.250000  0.985216  0.086621  0  .  1
   Ba  Ba54  1  0.750000  0.441891  0.612212  0  .  1
   Ba  Ba55  1  0.474472  0.658558  0.485158  0  .  1
   Ba  Ba56  1  0.250000  0.941891  0.887788  0  .  1
   Ba  Ba57  1  0.750000  0.419662  0.814225  0  .  1
   Ba  Ba58  1  0.012873  0.156518  0.608714  0  .  1
   Ba  Ba59  1  0.969857  0.105921  0.815403  0  .  1
   Ba  Ba60  1  0.496470  0.203371  0.406315  0  .  1
   Fe  Fe61  1  0.250000  0.538326  0.056689  0  .  1
   Fe  Fe62  1  0.750000  0.840942  0.469710  0  .  1
   Fe  Fe63  1  0.750000  0.654302  0.341226  0  .  1
   Fe  Fe64  1  0.750000  0.461674  0.943311  0  .  1
   Fe  Fe65  1  0.750000  0.038326  0.443311  0  .  1
   Fe  Fe66  1  0.250000  0.340942  0.030290  0  .  1
   Fe  Fe67  1  0.750000  0.945481  0.233994  0  .  1
   Fe  Fe68  1  0.250000  0.489292  0.854790  0  .  1
   Fe  Fe69  1  0.250000  0.445481  0.266006  0  .  1
   Fe  Fe70  1  0.750000  0.795603  0.670370  0  .  1
   Fe  Fe71  1  0.250000  0.345698  0.658774  0  .  1
   Fe  Fe72  1  0.750000  0.898525  0.036346  0  .  1
   Fe  Fe73  1  0.250000  0.010708  0.354790  0  .  1
   Fe  Fe74  1  0.750000  0.989292  0.645210  0  .  1
   Fe  Fe75  1  0.750000  0.845698  0.841226  0  .  1
   Fe  Fe76  1  0.250000  0.204397  0.329630  0  .  1
   Fe  Fe77  1  0.250000  0.295603  0.829630  0  .  1
   Fe  Fe78  1  0.750000  0.601475  0.536346  0  .  1
   Fe  Fe79  1  0.750000  0.704397  0.170370  0  .  1
   Fe  Fe80  1  0.250000  0.054519  0.766006  0  .  1
   Fe  Fe81  1  0.750000  0.659058  0.969710  0  .  1
   Fe  Fe82  1  0.750000  0.554519  0.733994  0  .  1
   Fe  Fe83  1  0.250000  0.398525  0.463654  0  .  1
   Fe  Fe84  1  0.250000  0.154302  0.158774  0  .  1
   Fe  Fe85  1  0.250000  0.101475  0.963654  0  .  1
   Fe  Fe86  1  0.250000  0.159058  0.530290  0  .  1
   Fe  Fe87  1  0.250000  0.961674  0.556689  0  .  1
   Fe  Fe88  1  0.750000  0.510708  0.145210  0  .  1
   S  S89  1  0.250000  0.068962  0.205717  0  .  1
   S  S90  1  0.750000  0.157026  0.663494  0  .  1
   S  S91  1  0.063450  0.446260  0.037697  0  .  1
   S  S92  1  0.448724  0.435559  0.439142  0  .  1
   S  S93  1  0.250000  0.026595  0.406573  0  .  1
   S  S94  1  0.750000  0.825373  0.331874  0  .  1
   S  S95  1  0.750000  0.451054  0.692145  0  .  1
   S  S96  1  0.444282  0.024618  0.740087  0  .  1
   S  S97  1  0.051276  0.435559  0.439142  0  .  1
   S  S98  1  0.936550  0.553740  0.962303  0  .  1
   S  S99  1  0.250000  0.842974  0.336506  0  .  1
   S  S100  1  0.049629  0.394159  0.636071  0  .  1
   S  S101  1  0.750000  0.824463  0.133708  0  .  1
   S  S102  1  0.250000  0.175537  0.866292  0  .  1
   S  S103  1  0.750000  0.993742  0.991820  0  .  1
   S  S104  1  0.563450  0.946260  0.462303  0  .  1
   S  S105  1  0.750000  0.674627  0.831874  0  .  1
   S  S106  1  0.250000  0.697231  0.636111  0  .  1
   S  S107  1  0.250000  0.548946  0.307855  0  .  1
   S  S108  1  0.250000  0.794627  0.536981  0  .  1
   S  S109  1  0.250000  0.779799  0.234003  0  .  1
   S  S110  1  0.750000  0.197231  0.863889  0  .  1
   S  S111  1  0.750000  0.526595  0.093427  0  .  1
   S  S112  1  0.750000  0.973405  0.593427  0  .  1
   S  S113  1  0.750000  0.294627  0.963019  0  .  1
   S  S114  1  0.750000  0.779921  0.933537  0  .  1
   S  S115  1  0.051276  0.064441  0.939142  0  .  1
   S  S116  1  0.551276  0.564441  0.560858  0  .  1
   S  S117  1  0.250000  0.529280  0.108422  0  .  1
   S  S118  1  0.250000  0.756316  0.936458  0  .  1
   S  S119  1  0.937756  0.900075  0.664247  0  .  1
   S  S120  1  0.062244  0.099925  0.335753  0  .  1
   S  S121  1  0.750000  0.568962  0.294283  0  .  1
   S  S122  1  0.750000  0.029280  0.391578  0  .  1
   S  S123  1  0.250000  0.705373  0.036981  0  .  1
   S  S124  1  0.448724  0.064441  0.939142  0  .  1
   S  S125  1  0.436550  0.446260  0.037697  0  .  1
   S  S126  1  0.444282  0.475382  0.240087  0  .  1
   S  S127  1  0.750000  0.675537  0.633708  0  .  1
   S  S128  1  0.437756  0.099925  0.335753  0  .  1
   S  S129  1  0.450371  0.105841  0.136071  0  .  1
   S  S130  1  0.944282  0.975382  0.259913  0  .  1
   S  S131  1  0.250000  0.324463  0.366292  0  .  1
   S  S132  1  0.750000  0.048946  0.192145  0  .  1
   S  S133  1  0.250000  0.473405  0.906573  0  .  1
   S  S134  1  0.250000  0.279726  0.977788  0  .  1
   S  S135  1  0.250000  0.657026  0.836506  0  .  1
   S  S136  1  0.562244  0.900075  0.664247  0  .  1
   S  S137  1  0.250000  0.951054  0.807855  0  .  1
   S  S138  1  0.948724  0.564441  0.560858  0  .  1
   S  S139  1  0.562244  0.599925  0.164247  0  .  1
   S  S140  1  0.250000  0.720201  0.734003  0  .  1
   S  S141  1  0.750000  0.220201  0.765997  0  .  1
   S  S142  1  0.750000  0.931038  0.794283  0  .  1
   S  S143  1  0.750000  0.735476  0.722056  0  .  1
   S  S144  1  0.750000  0.302769  0.363889  0  .  1
   S  S145  1  0.250000  0.006258  0.008180  0  .  1
   S  S146  1  0.750000  0.256316  0.563542  0  .  1
   S  S147  1  0.063450  0.053740  0.537697  0  .  1
   S  S148  1  0.555718  0.975382  0.259913  0  .  1
   S  S149  1  0.049629  0.105841  0.136071  0  .  1
   S  S150  1  0.450371  0.394159  0.636071  0  .  1
   S  S151  1  0.750000  0.720079  0.433537  0  .  1
   S  S152  1  0.250000  0.325373  0.168126  0  .  1
   S  S153  1  0.250000  0.431038  0.705717  0  .  1
   S  S154  1  0.750000  0.506258  0.491820  0  .  1
   S  S155  1  0.936550  0.946260  0.462303  0  .  1
   S  S156  1  0.055718  0.475382  0.240087  0  .  1
   S  S157  1  0.950371  0.605841  0.363929  0  .  1
   S  S158  1  0.563450  0.553740  0.962303  0  .  1
   S  S159  1  0.062244  0.400075  0.835753  0  .  1
   S  S160  1  0.549629  0.605841  0.363929  0  .  1
   S  S161  1  0.750000  0.779726  0.522212  0  .  1
   S  S162  1  0.250000  0.220079  0.066463  0  .  1
   S  S163  1  0.750000  0.764524  0.222056  0  .  1
   S  S164  1  0.250000  0.174627  0.668126  0  .  1
   S  S165  1  0.250000  0.493742  0.508180  0  .  1
   S  S166  1  0.551276  0.935559  0.060858  0  .  1
   S  S167  1  0.436550  0.053740  0.537697  0  .  1
   S  S168  1  0.937756  0.599925  0.164247  0  .  1
   S  S169  1  0.549629  0.894159  0.863929  0  .  1
   S  S170  1  0.055718  0.024618  0.740087  0  .  1
   S  S171  1  0.437756  0.400075  0.835753  0  .  1
   S  S172  1  0.750000  0.279799  0.265997  0  .  1
   S  S173  1  0.250000  0.235476  0.777944  0  .  1
   S  S174  1  0.250000  0.970720  0.608422  0  .  1
   S  S175  1  0.250000  0.743684  0.436458  0  .  1
   S  S176  1  0.750000  0.205373  0.463019  0  .  1
   S  S177  1  0.944282  0.524618  0.759913  0  .  1
   S  S178  1  0.950371  0.894159  0.863929  0  .  1
   S  S179  1  0.250000  0.220274  0.477788  0  .  1
   S  S180  1  0.250000  0.802769  0.136111  0  .  1
   S  S181  1  0.250000  0.264524  0.277944  0  .  1
   S  S182  1  0.555718  0.524618  0.759913  0  .  1
   S  S183  1  0.750000  0.720274  0.022212  0  .  1
   S  S184  1  0.948724  0.935559  0.060858  0  .  1
   S  S185  1  0.250000  0.279921  0.566463  0  .  1
   S  S186  1  0.750000  0.342974  0.163494  0  .  1
   S  S187  1  0.750000  0.243684  0.063542  0  .  1
   S  S188  1  0.750000  0.470720  0.891578  0  .  1
 
