#\#CIF1.1
##########################################################################
#               Crystallographic Information Format file 
#               Produced by PyCifRW module
# 
#  This is a CIF file.  CIF has been adopted by the International
#  Union of Crystallography as the standard for data archiving and 
#  transmission.
#
#  For information on this file format, follow the CIF links at
#  http://www.iucr.org
##########################################################################

data_Ba2(CuO2)3
_symmetry_space_group_name_H-M          'P 1'
_cell_length_a                          9.30592426045
_cell_length_b                          8.47858988857
_cell_length_c                          7.03693934673
_cell_angle_alpha                       73.041649103
_cell_angle_beta                        60.6309421682
_cell_angle_gamma                       46.3274088601
_chemical_name_systematic               'Generated by pymatgen'
_symmetry_Int_Tables_number             1
_chemical_formula_structural            Ba2(CuO2)3
_chemical_formula_sum                   'Ba4 Cu6 O12'
_cell_volume                            349.0043903
_cell_formula_units_Z                   2
loop_
  _symmetry_equiv_pos_site_id
  _symmetry_equiv_pos_as_xyz
   1  'x, y, z'
 
loop_
  _atom_site_type_symbol
  _atom_site_label
  _atom_site_symmetry_multiplicity
  _atom_site_fract_x
  _atom_site_fract_y
  _atom_site_fract_z
  _atom_site_attached_hydrogens
  _atom_site_B_iso_or_equiv
  _atom_site_occupancy
   O  O1  1  0.488140  0.693474  0.738529  0  .  1
   O  O2  1  0.306526  0.511860  0.920143  0  .  1
   O  O3  1  0.261471  0.920143  0.511860  0  .  1
   O  O4  1  0.079857  0.738529  0.693474  0  .  1
   O  O5  1  0.932293  0.700648  0.299352  0  .  1
   O  O6  1  0.299352  0.067707  0.932293  0  .  1
   O  O7  1  0.067707  0.299352  0.700648  0  .  1
   O  O8  1  0.700648  0.932293  0.067707  0  .  1
   O  O9  1  0.920143  0.261471  0.306526  0  .  1
   O  O10  1  0.511860  0.306526  0.261471  0  .  1
   O  O11  1  0.693474  0.488140  0.079857  0  .  1
   O  O12  1  0.738529  0.079857  0.488140  0  .  1
   Cu  Cu13  1  0.307661  0.692339  0.692339  0  .  1
   Cu  Cu14  1  0.692339  0.307661  0.307661  0  .  1
   Cu  Cu15  1  0.300120  0.995899  0.699880  0  .  1
   Cu  Cu16  1  0.004101  0.699880  0.995899  0  .  1
   Cu  Cu17  1  0.995899  0.300120  0.004101  0  .  1
   Cu  Cu18  1  0.699880  0.004101  0.300120  0  .  1
   Ba  Ba19  1  0.750000  0.750000  0.750000  0  .  1
   Ba  Ba20  1  0.767202  0.232798  0.767202  0  .  1
   Ba  Ba21  1  0.232798  0.767202  0.232798  0  .  1
   Ba  Ba22  1  0.250000  0.250000  0.250000  0  .  1
 
