#\#CIF1.1
##########################################################################
#               Crystallographic Information Format file 
#               Produced by PyCifRW module
# 
#  This is a CIF file.  CIF has been adopted by the International
#  Union of Crystallography as the standard for data archiving and 
#  transmission.
#
#  For information on this file format, follow the CIF links at
#  http://www.iucr.org
##########################################################################

data_Ba2CrO4
_symmetry_space_group_name_H-M          'P 1'
_cell_length_a                          6.00512888
_cell_length_b                          7.73476756
_cell_length_c                          10.71257563
_cell_angle_alpha                       90.0
_cell_angle_beta                        90.0
_cell_angle_gamma                       90.0
_chemical_name_systematic               'Generated by pymatgen'
_symmetry_Int_Tables_number             1
_chemical_formula_structural            Ba2CrO4
_chemical_formula_sum                   'Ba8 Cr4 O16'
_cell_volume                            497.580670118
_cell_formula_units_Z                   4
loop_
  _symmetry_equiv_pos_site_id
  _symmetry_equiv_pos_as_xyz
   1  'x, y, z'
 
loop_
  _atom_site_type_symbol
  _atom_site_label
  _atom_site_symmetry_multiplicity
  _atom_site_fract_x
  _atom_site_fract_y
  _atom_site_fract_z
  _atom_site_attached_hydrogens
  _atom_site_B_iso_or_equiv
  _atom_site_occupancy
   O  O1  1  0.996458  0.191191  0.852226  0  .  1
   O  O2  1  0.496459  0.808809  0.147774  0  .  1
   O  O3  1  0.503541  0.691191  0.647774  0  .  1
   O  O4  1  0.003541  0.308809  0.352226  0  .  1
   O  O5  1  0.003541  0.808809  0.147774  0  .  1
   O  O6  1  0.503541  0.191191  0.852226  0  .  1
   O  O7  1  0.496459  0.308809  0.352226  0  .  1
   O  O8  1  0.996458  0.691191  0.647774  0  .  1
   O  O9  1  0.250001  0.811630  0.921591  0  .  1
   O  O10  1  0.750001  0.188370  0.078409  0  .  1
   O  O11  1  0.250001  0.311630  0.578409  0  .  1
   O  O12  1  0.750001  0.688370  0.421591  0  .  1
   O  O13  1  0.750001  0.011489  0.578700  0  .  1
   O  O14  1  0.250001  0.988511  0.421300  0  .  1
   O  O15  1  0.250001  0.488511  0.078700  0  .  1
   O  O16  1  0.750001  0.511489  0.921300  0  .  1
   Cr  Cr17  1  0.250001  0.718431  0.078515  0  .  1
   Cr  Cr18  1  0.750001  0.281569  0.921485  0  .  1
   Cr  Cr19  1  0.250001  0.218431  0.421485  0  .  1
   Cr  Cr20  1  0.750001  0.781569  0.578515  0  .  1
   Ba  Ba21  1  0.250001  0.995302  0.696153  0  .  1
   Ba  Ba22  1  0.750001  0.504698  0.196153  0  .  1
   Ba  Ba23  1  0.250001  0.495302  0.803846  0  .  1
   Ba  Ba24  1  0.750001  0.004698  0.303846  0  .  1
   Ba  Ba25  1  0.250001  0.650816  0.429313  0  .  1
   Ba  Ba26  1  0.750001  0.349184  0.570688  0  .  1
   Ba  Ba27  1  0.250001  0.150816  0.070687  0  .  1
   Ba  Ba28  1  0.750001  0.849184  0.929313  0  .  1
 
