#\#CIF1.1
##########################################################################
#               Crystallographic Information Format file 
#               Produced by PyCifRW module
# 
#  This is a CIF file.  CIF has been adopted by the International
#  Union of Crystallography as the standard for data archiving and 
#  transmission.
#
#  For information on this file format, follow the CIF links at
#  http://www.iucr.org
##########################################################################

data_Ba2Cu2O5
_symmetry_space_group_name_H-M          'P 1'
_cell_length_a                          11.54344717
_cell_length_b                          4.1385461
_cell_length_c                          13.76475069
_cell_angle_alpha                       90.0
_cell_angle_beta                        90.0
_cell_angle_gamma                       90.0
_chemical_name_systematic               'Generated by pymatgen'
_symmetry_Int_Tables_number             1
_chemical_formula_structural            Ba2Cu2O5
_chemical_formula_sum                   'Ba8 Cu8 O20'
_cell_volume                            657.584649672
_cell_formula_units_Z                   4
loop_
  _symmetry_equiv_pos_site_id
  _symmetry_equiv_pos_as_xyz
   1  'x, y, z'
 
loop_
  _atom_site_type_symbol
  _atom_site_label
  _atom_site_symmetry_multiplicity
  _atom_site_fract_x
  _atom_site_fract_y
  _atom_site_fract_z
  _atom_site_attached_hydrogens
  _atom_site_B_iso_or_equiv
  _atom_site_occupancy
   Ba  Ba1  1  0.054338  0.258290  0.860517  0  .  1
   Ba  Ba2  1  0.194100  0.259004  0.543682  0  .  1
   Ba  Ba3  1  0.305900  0.759004  0.043682  0  .  1
   Ba  Ba4  1  0.445662  0.758290  0.360517  0  .  1
   Ba  Ba5  1  0.554338  0.241710  0.860517  0  .  1
   Ba  Ba6  1  0.694100  0.240996  0.543682  0  .  1
   Ba  Ba7  1  0.805900  0.740996  0.043682  0  .  1
   Ba  Ba8  1  0.945662  0.741710  0.360517  0  .  1
   Cu  Cu9  1  0.018567  0.234393  0.156420  0  .  1
   Cu  Cu10  1  0.234538  0.271435  0.249718  0  .  1
   Cu  Cu11  1  0.265462  0.771435  0.749718  0  .  1
   Cu  Cu12  1  0.481433  0.734393  0.656420  0  .  1
   Cu  Cu13  1  0.518567  0.265607  0.156420  0  .  1
   Cu  Cu14  1  0.734538  0.228565  0.249718  0  .  1
   Cu  Cu15  1  0.765462  0.728565  0.749718  0  .  1
   Cu  Cu16  1  0.981433  0.765607  0.656420  0  .  1
   O  O17  1  0.079827  0.230697  0.283724  0  .  1
   O  O18  1  0.035876  0.725516  0.531480  0  .  1
   O  O19  1  0.124054  0.906271  0.700896  0  .  1
   O  O20  1  0.173142  0.273995  0.123108  0  .  1
   O  O21  1  0.209498  0.743181  0.874455  0  .  1
   O  O22  1  0.290502  0.243181  0.374455  0  .  1
   O  O23  1  0.326858  0.773995  0.623108  0  .  1
   O  O24  1  0.375946  0.406271  0.200896  0  .  1
   O  O25  1  0.464124  0.225516  0.031480  0  .  1
   O  O26  1  0.420173  0.730697  0.783724  0  .  1
   O  O27  1  0.579827  0.269303  0.283724  0  .  1
   O  O28  1  0.535876  0.774484  0.531480  0  .  1
   O  O29  1  0.624054  0.593729  0.700896  0  .  1
   O  O30  1  0.673142  0.226005  0.123108  0  .  1
   O  O31  1  0.709498  0.756819  0.874455  0  .  1
   O  O32  1  0.790502  0.256819  0.374455  0  .  1
   O  O33  1  0.826858  0.726005  0.623108  0  .  1
   O  O34  1  0.875946  0.093729  0.200896  0  .  1
   O  O35  1  0.964124  0.274484  0.031480  0  .  1
   O  O36  1  0.920173  0.769303  0.783724  0  .  1
 
