#\#CIF1.1
##########################################################################
#               Crystallographic Information Format file 
#               Produced by PyCifRW module
# 
#  This is a CIF file.  CIF has been adopted by the International
#  Union of Crystallography as the standard for data archiving and 
#  transmission.
#
#  For information on this file format, follow the CIF links at
#  http://www.iucr.org
##########################################################################

data_Ba2Co9O14
_symmetry_space_group_name_H-M          'P 1'
_cell_length_a                          10.2696708063
_cell_length_b                          10.269670805
_cell_length_c                          10.2696708033
_cell_angle_alpha                       32.5197218644
_cell_angle_beta                        32.5197218476
_cell_angle_gamma                       32.5197218533
_chemical_name_systematic               'Generated by pymatgen'
_symmetry_Int_Tables_number             1
_chemical_formula_structural            Ba2Co9O14
_chemical_formula_sum                   'Ba2 Co9 O14'
_cell_volume                            278.345458337
_cell_formula_units_Z                   1
loop_
  _symmetry_equiv_pos_site_id
  _symmetry_equiv_pos_as_xyz
   1  'x, y, z'
 
loop_
  _atom_site_type_symbol
  _atom_site_label
  _atom_site_symmetry_multiplicity
  _atom_site_fract_x
  _atom_site_fract_y
  _atom_site_fract_z
  _atom_site_attached_hydrogens
  _atom_site_B_iso_or_equiv
  _atom_site_occupancy
   O  O1  1  0.840992  0.395940  0.395940  0  .  1
   O  O2  1  0.395940  0.395940  0.840992  0  .  1
   O  O3  1  0.395940  0.840992  0.395940  0  .  1
   O  O4  1  0.604060  0.604060  0.159008  0  .  1
   O  O5  1  0.604060  0.159008  0.604060  0  .  1
   O  O6  1  0.159008  0.604060  0.604060  0  .  1
   O  O7  1  0.299571  0.299571  0.299571  0  .  1
   O  O8  1  0.700429  0.700429  0.700429  0  .  1
   O  O9  1  0.783240  0.783240  0.322209  0  .  1
   O  O10  1  0.783240  0.322209  0.783240  0  .  1
   O  O11  1  0.322209  0.783240  0.783240  0  .  1
   O  O12  1  0.216760  0.677791  0.216760  0  .  1
   O  O13  1  0.216760  0.216760  0.677791  0  .  1
   O  O14  1  0.677791  0.216760  0.216760  0  .  1
   Co  Co15  1  0.232735  0.232735  0.232735  0  .  1
   Co  Co16  1  0.767265  0.767265  0.767265  0  .  1
   Co  Co17  1  0.587138  0.587138  0.587138  0  .  1
   Co  Co18  1  0.412862  0.412862  0.412862  0  .  1
   Co  Co19  1  0.500000  0.500000  0.500000  0  .  1
   Co  Co20  1  0.500000  0.000000  0.500000  0  .  1
   Co  Co21  1  0.000000  0.500000  0.500000  0  .  1
   Co  Co22  1  0.500000  0.500000  0.000000  0  .  1
   Co  Co23  1  0.000000  0.000000  0.000000  0  .  1
   Ba  Ba24  1  0.884461  0.884461  0.884461  0  .  1
   Ba  Ba25  1  0.115539  0.115539  0.115539  0  .  1
 
