#\#CIF1.1
##########################################################################
#               Crystallographic Information Format file 
#               Produced by PyCifRW module
# 
#  This is a CIF file.  CIF has been adopted by the International
#  Union of Crystallography as the standard for data archiving and 
#  transmission.
#
#  For information on this file format, follow the CIF links at
#  http://www.iucr.org
##########################################################################

data_Ba2FeO4
_symmetry_space_group_name_H-M          'P 1'
_cell_length_a                          6.23265487229
_cell_length_b                          7.75555953
_cell_length_c                          10.3522980386
_cell_angle_alpha                       90.0
_cell_angle_beta                        94.2262603347
_cell_angle_gamma                       90.0
_chemical_name_systematic               'Generated by pymatgen'
_symmetry_Int_Tables_number             1
_chemical_formula_structural            Ba2FeO4
_chemical_formula_sum                   'Ba8 Fe4 O16'
_cell_volume                            499.045842101
_cell_formula_units_Z                   4
loop_
  _symmetry_equiv_pos_site_id
  _symmetry_equiv_pos_as_xyz
   1  'x, y, z'
 
loop_
  _atom_site_type_symbol
  _atom_site_label
  _atom_site_symmetry_multiplicity
  _atom_site_fract_x
  _atom_site_fract_y
  _atom_site_fract_z
  _atom_site_attached_hydrogens
  _atom_site_B_iso_or_equiv
  _atom_site_occupancy
   Ba  Ba1  1  0.755940  0.845449  0.075130  0  .  1
   Ba  Ba2  1  0.744060  0.345449  0.424870  0  .  1
   Ba  Ba3  1  0.244060  0.154551  0.924870  0  .  1
   Ba  Ba4  1  0.255940  0.654551  0.575130  0  .  1
   Ba  Ba5  1  0.220683  0.505846  0.197400  0  .  1
   Ba  Ba6  1  0.279317  0.005846  0.302600  0  .  1
   Ba  Ba7  1  0.779317  0.494154  0.802600  0  .  1
   Ba  Ba8  1  0.720683  0.994154  0.697400  0  .  1
   Fe  Fe9  1  0.742781  0.278962  0.083209  0  .  1
   Fe  Fe10  1  0.757219  0.778962  0.416791  0  .  1
   Fe  Fe11  1  0.257219  0.721038  0.916791  0  .  1
   Fe  Fe12  1  0.242781  0.221038  0.583209  0  .  1
   O  O13  1  0.705388  0.007363  0.403421  0  .  1
   O  O14  1  0.794612  0.507363  0.096579  0  .  1
   O  O15  1  0.294612  0.992637  0.596579  0  .  1
   O  O16  1  0.205388  0.492637  0.903421  0  .  1
   O  O17  1  0.496353  0.243440  0.162319  0  .  1
   O  O18  1  0.003647  0.743440  0.337681  0  .  1
   O  O19  1  0.503647  0.756560  0.837681  0  .  1
   O  O20  1  0.996353  0.256560  0.662319  0  .  1
   O  O21  1  0.001824  0.183263  0.132607  0  .  1
   O  O22  1  0.498176  0.683263  0.367393  0  .  1
   O  O23  1  0.998176  0.816737  0.867393  0  .  1
   O  O24  1  0.501824  0.316737  0.632607  0  .  1
   O  O25  1  0.683858  0.168773  0.927267  0  .  1
   O  O26  1  0.816142  0.668773  0.572733  0  .  1
   O  O27  1  0.316142  0.831227  0.072733  0  .  1
   O  O28  1  0.183858  0.331227  0.427267  0  .  1
 
