#\#CIF1.1
##########################################################################
#               Crystallographic Information Format file 
#               Produced by PyCifRW module
# 
#  This is a CIF file.  CIF has been adopted by the International
#  Union of Crystallography as the standard for data archiving and 
#  transmission.
#
#  For information on this file format, follow the CIF links at
#  http://www.iucr.org
##########################################################################

data_Ba2LaIrO6
_symmetry_space_group_name_H-M          'P 1'
_cell_length_a                          6.12786876831
_cell_length_b                          6.12798863407
_cell_length_c                          6.12786767327
_cell_angle_alpha                       59.7498907095
_cell_angle_beta                        59.7502987556
_cell_angle_gamma                       59.7508908789
_chemical_name_systematic               'Generated by pymatgen'
_symmetry_Int_Tables_number             1
_chemical_formula_structural            Ba2LaIrO6
_chemical_formula_sum                   'Ba2 La1 Ir1 O6'
_cell_volume                            161.790442372
_cell_formula_units_Z                   1
loop_
  _symmetry_equiv_pos_site_id
  _symmetry_equiv_pos_as_xyz
   1  'x, y, z'
 
loop_
  _atom_site_type_symbol
  _atom_site_label
  _atom_site_symmetry_multiplicity
  _atom_site_fract_x
  _atom_site_fract_y
  _atom_site_fract_z
  _atom_site_attached_hydrogens
  _atom_site_B_iso_or_equiv
  _atom_site_occupancy
   O  O1  1  0.730626  0.243775  0.297939  0  .  1
   O  O2  1  0.756243  0.702048  0.269373  0  .  1
   O  O3  1  0.702091  0.269335  0.756239  0  .  1
   Ba  Ba4  1  0.247335  0.247345  0.247355  0  .  1
   La  La5  1  -0.000025  0.999996  0.999869  0  .  1
   Ba  Ba6  1  0.752664  0.752646  0.752670  0  .  1
   O  O7  1  0.269391  0.756217  0.702092  0  .  1
   O  O8  1  0.243762  0.297945  0.730665  0  .  1
   O  O9  1  0.297923  0.730657  0.243808  0  .  1
   Ir  Ir10  1  0.499991  0.500036  0.499990  0  .  1
 
