#\#CIF1.1
##########################################################################
#               Crystallographic Information Format file 
#               Produced by PyCifRW module
# 
#  This is a CIF file.  CIF has been adopted by the International
#  Union of Crystallography as the standard for data archiving and 
#  transmission.
#
#  For information on this file format, follow the CIF links at
#  http://www.iucr.org
##########################################################################

data_Ba2MnTe3
_symmetry_space_group_name_H-M          'P 1'
_cell_length_a                          4.7947476
_cell_length_b                          9.82046897
_cell_length_c                          19.12179291
_cell_angle_alpha                       90.0
_cell_angle_beta                        90.0
_cell_angle_gamma                       90.0
_chemical_name_systematic               'Generated by pymatgen'
_symmetry_Int_Tables_number             1
_chemical_formula_structural            Ba2MnTe3
_chemical_formula_sum                   'Ba8 Mn4 Te12'
_cell_volume                            900.381553035
_cell_formula_units_Z                   4
loop_
  _symmetry_equiv_pos_site_id
  _symmetry_equiv_pos_as_xyz
   1  'x, y, z'
 
loop_
  _atom_site_type_symbol
  _atom_site_label
  _atom_site_symmetry_multiplicity
  _atom_site_fract_x
  _atom_site_fract_y
  _atom_site_fract_z
  _atom_site_attached_hydrogens
  _atom_site_B_iso_or_equiv
  _atom_site_occupancy
   Mn  Mn1  1  0.250000  0.632458  0.364239  0  .  1
   Mn  Mn2  1  0.750000  0.367542  0.635761  0  .  1
   Mn  Mn3  1  0.750000  0.867542  0.864239  0  .  1
   Mn  Mn4  1  0.250000  0.132458  0.135761  0  .  1
   Te  Te5  1  0.250000  0.498309  0.601351  0  .  1
   Te  Te6  1  0.250000  0.183018  0.275278  0  .  1
   Te  Te7  1  0.750000  0.316982  0.775278  0  .  1
   Te  Te8  1  0.750000  0.816982  0.724722  0  .  1
   Te  Te9  1  0.750000  0.621298  0.928052  0  .  1
   Te  Te10  1  0.250000  0.378702  0.071948  0  .  1
   Te  Te11  1  0.750000  0.121298  0.571948  0  .  1
   Te  Te12  1  0.250000  0.878702  0.428052  0  .  1
   Te  Te13  1  0.750000  0.001691  0.101351  0  .  1
   Te  Te14  1  0.250000  0.998309  0.898649  0  .  1
   Te  Te15  1  0.250000  0.683018  0.224722  0  .  1
   Te  Te16  1  0.750000  0.501691  0.398649  0  .  1
   Ba  Ba17  1  0.750000  0.917294  0.287037  0  .  1
   Ba  Ba18  1  0.250000  0.082706  0.712963  0  .  1
   Ba  Ba19  1  0.750000  0.417294  0.212963  0  .  1
   Ba  Ba20  1  0.250000  0.582706  0.787037  0  .  1
   Ba  Ba21  1  0.250000  0.751013  0.041021  0  .  1
   Ba  Ba22  1  0.750000  0.248987  0.958979  0  .  1
   Ba  Ba23  1  0.250000  0.251013  0.458979  0  .  1
   Ba  Ba24  1  0.750000  0.748987  0.541021  0  .  1
 
