#\#CIF1.1
##########################################################################
#               Crystallographic Information Format file 
#               Produced by PyCifRW module
# 
#  This is a CIF file.  CIF has been adopted by the International
#  Union of Crystallography as the standard for data archiving and 
#  transmission.
#
#  For information on this file format, follow the CIF links at
#  http://www.iucr.org
##########################################################################

data_Ba2MnO3
_symmetry_space_group_name_H-M          'P 1'
_cell_length_a                          6.0585313973
_cell_length_b                          6.59448071137
_cell_length_c                          12.8279310939
_cell_angle_alpha                       88.4281112097
_cell_angle_beta                        86.5765103293
_cell_angle_gamma                       62.653937899
_chemical_name_systematic               'Generated by pymatgen'
_symmetry_Int_Tables_number             1
_chemical_formula_structural            Ba2MnO3
_chemical_formula_sum                   'Ba8 Mn4 O12'
_cell_volume                            454.426038824
_cell_formula_units_Z                   4
loop_
  _symmetry_equiv_pos_site_id
  _symmetry_equiv_pos_as_xyz
   1  'x, y, z'
 
loop_
  _atom_site_type_symbol
  _atom_site_label
  _atom_site_symmetry_multiplicity
  _atom_site_fract_x
  _atom_site_fract_y
  _atom_site_fract_z
  _atom_site_attached_hydrogens
  _atom_site_B_iso_or_equiv
  _atom_site_occupancy
   O  O1  1  0.741699  0.650926  0.271932  0  .  1
   O  O2  1  0.392625  0.349074  0.771932  0  .  1
   O  O3  1  0.229344  0.017662  0.652545  0  .  1
   O  O4  1  0.247006  0.982338  0.152545  0  .  1
   O  O5  1  0.921457  0.200434  0.935362  0  .  1
   O  O6  1  0.121891  0.799566  0.435362  0  .  1
   O  O7  1  0.636589  0.202869  0.152153  0  .  1
   O  O8  1  0.357049  0.198468  0.369203  0  .  1
   O  O9  1  0.736545  0.347645  0.532270  0  .  1
   O  O10  1  0.084190  0.652355  0.032270  0  .  1
   O  O11  1  0.555516  0.801532  0.869203  0  .  1
   O  O12  1  0.839458  0.797131  0.652153  0  .  1
   Mn  Mn13  1  0.967150  0.994175  0.065726  0  .  1
   Mn  Mn14  1  0.516665  0.992877  0.238720  0  .  1
   Mn  Mn15  1  0.961325  0.005825  0.565726  0  .  1
   Mn  Mn16  1  0.509543  0.007123  0.738720  0  .  1
   Ba  Ba17  1  0.367085  0.212265  0.977610  0  .  1
   Ba  Ba18  1  0.898568  0.210659  0.326680  0  .  1
   Ba  Ba19  1  0.109228  0.789341  0.826680  0  .  1
   Ba  Ba20  1  0.579349  0.787735  0.477610  0  .  1
   Ba  Ba21  1  0.267221  0.412876  0.552496  0  .  1
   Ba  Ba22  1  0.680096  0.587124  0.052496  0  .  1
   Ba  Ba23  1  0.796523  0.414352  0.751604  0  .  1
   Ba  Ba24  1  0.210875  0.585648  0.251604  0  .  1
 
