#\#CIF1.1
##########################################################################
#               Crystallographic Information Format file 
#               Produced by PyCifRW module
# 
#  This is a CIF file.  CIF has been adopted by the International
#  Union of Crystallography as the standard for data archiving and 
#  transmission.
#
#  For information on this file format, follow the CIF links at
#  http://www.iucr.org
##########################################################################

data_Ba2MnO4
_symmetry_space_group_name_H-M          'P 1'
_cell_length_a                          7.22578269473
_cell_length_b                          7.22578269473
_cell_length_c                          7.22578269473
_cell_angle_alpha                       147.435373768
_cell_angle_beta                        147.435373768
_cell_angle_gamma                       46.7195699465
_chemical_name_systematic               'Generated by pymatgen'
_symmetry_Int_Tables_number             1
_chemical_formula_structural            Ba2MnO4
_chemical_formula_sum                   'Ba2 Mn1 O4'
_cell_volume                            108.902386324
_cell_formula_units_Z                   1
loop_
  _symmetry_equiv_pos_site_id
  _symmetry_equiv_pos_as_xyz
   1  'x, y, z'
 
loop_
  _atom_site_type_symbol
  _atom_site_label
  _atom_site_symmetry_multiplicity
  _atom_site_fract_x
  _atom_site_fract_y
  _atom_site_fract_z
  _atom_site_attached_hydrogens
  _atom_site_B_iso_or_equiv
  _atom_site_occupancy
   Ba  Ba1  1  0.357772  0.357772  0.000000  0  .  1
   Ba  Ba2  1  0.642228  0.642228  0.000000  0  .  1
   Mn  Mn3  1  0.000000  0.000000  0.000000  0  .  1
   O  O4  1  0.500000  0.000000  0.500000  0  .  1
   O  O5  1  0.148185  0.148185  0.000000  0  .  1
   O  O6  1  0.851815  0.851815  0.000000  0  .  1
   O  O7  1  0.000000  0.500000  0.500000  0  .  1
 
