#\#CIF1.1
##########################################################################
#               Crystallographic Information Format file 
#               Produced by PyCifRW module
# 
#  This is a CIF file.  CIF has been adopted by the International
#  Union of Crystallography as the standard for data archiving and 
#  transmission.
#
#  For information on this file format, follow the CIF links at
#  http://www.iucr.org
##########################################################################

data_Ba2Na(NiO2)3
_symmetry_space_group_name_H-M          'P 1'
_cell_length_a                          7.04985030298
_cell_length_b                          7.04985030269
_cell_length_c                          8.41336999714
_cell_angle_alpha                       107.13512421
_cell_angle_beta                        107.13512425
_cell_angle_gamma                       107.26428104
_chemical_name_systematic               'Generated by pymatgen'
_symmetry_Int_Tables_number             1
_chemical_formula_structural            Ba2Na(NiO2)3
_chemical_formula_sum                   'Ba4 Na2 Ni6 O12'
_cell_volume                            346.530482513
_cell_formula_units_Z                   2
loop_
  _symmetry_equiv_pos_site_id
  _symmetry_equiv_pos_as_xyz
   1  'x, y, z'
 
loop_
  _atom_site_type_symbol
  _atom_site_label
  _atom_site_symmetry_multiplicity
  _atom_site_fract_x
  _atom_site_fract_y
  _atom_site_fract_z
  _atom_site_attached_hydrogens
  _atom_site_B_iso_or_equiv
  _atom_site_occupancy
   O  O1  1  0.496649  0.276169  0.186259  0  .  1
   O  O2  1  0.089911  0.310391  0.813741  0  .  1
   O  O3  1  0.723831  0.503351  0.813742  0  .  1
   O  O4  1  0.689610  0.910089  0.186259  0  .  1
   O  O5  1  0.503351  0.723830  0.813741  0  .  1
   O  O6  1  0.910090  0.689610  0.186260  0  .  1
   O  O7  1  0.276170  0.496650  0.186260  0  .  1
   O  O8  1  0.310390  0.089910  0.813741  0  .  1
   O  O9  1  0.298544  0.072081  0.370624  0  .  1
   O  O10  1  0.701456  0.927920  0.629376  0  .  1
   O  O11  1  0.927919  0.701456  0.629375  0  .  1
   O  O12  1  0.072081  0.298545  0.370624  0  .  1
   Na  Na13  1  0.672651  0.672649  0.345300  0  .  1
   Na  Na14  1  0.327349  0.327350  0.654699  0  .  1
   Ni  Ni15  1  0.994952  0.994952  0.290891  0  .  1
   Ni  Ni16  1  0.704061  0.704061  0.709108  0  .  1
   Ni  Ni17  1  0.295938  0.295938  0.290891  0  .  1
   Ni  Ni18  1  0.005048  0.005047  0.709109  0  .  1
   Ni  Ni19  1  0.303883  0.303883  1.000000  0  .  1
   Ni  Ni20  1  0.696118  0.696117  0.000001  0  .  1
   Ba  Ba21  1  0.250000  0.750001  0.500000  0  .  1
   Ba  Ba22  1  0.750000  0.250000  0.500000  0  .  1
   Ba  Ba23  1  0.228279  0.771720  0.000000  0  .  1
   Ba  Ba24  1  0.771720  0.228280  0.000001  0  .  1
 
