#\#CIF1.1
##########################################################################
#               Crystallographic Information Format file 
#               Produced by PyCifRW module
# 
#  This is a CIF file.  CIF has been adopted by the International
#  Union of Crystallography as the standard for data archiving and 
#  transmission.
#
#  For information on this file format, follow the CIF links at
#  http://www.iucr.org
##########################################################################

data_Ba2S3
_symmetry_space_group_name_H-M          'P 1'
_cell_length_a                          6.09460291575
_cell_length_b                          6.09460291684
_cell_length_c                          9.15348266176
_cell_angle_alpha                       109.445599357
_cell_angle_beta                        109.445599344
_cell_angle_gamma                       89.9999999791
_chemical_name_systematic               'Generated by pymatgen'
_symmetry_Int_Tables_number             1
_chemical_formula_structural            Ba2S3
_chemical_formula_sum                   'Ba4 S6'
_cell_volume                            299.958903573
_cell_formula_units_Z                   2
loop_
  _symmetry_equiv_pos_site_id
  _symmetry_equiv_pos_as_xyz
   1  'x, y, z'
 
loop_
  _atom_site_type_symbol
  _atom_site_label
  _atom_site_symmetry_multiplicity
  _atom_site_fract_x
  _atom_site_fract_y
  _atom_site_fract_z
  _atom_site_attached_hydrogens
  _atom_site_B_iso_or_equiv
  _atom_site_occupancy
   S  S1  1  0.969027  0.642043  0.284087  0  .  1
   S  S2  1  0.392043  0.219027  0.784087  0  .  1
   S  S3  1  0.392043  0.565060  0.784087  0  .  1
   S  S4  1  0.315060  0.642043  0.284087  0  .  1
   S  S5  1  0.999147  0.999147  0.998294  0  .  1
   S  S6  1  0.749147  0.249147  0.498294  0  .  1
   Ba  Ba7  1  0.954421  0.454421  0.908843  0  .  1
   Ba  Ba8  1  0.204421  0.204421  0.408843  0  .  1
   Ba  Ba9  1  0.549545  0.049545  0.099090  0  .  1
   Ba  Ba10  1  0.799545  0.799545  0.599090  0  .  1
 
