#\#CIF1.1
##########################################################################
#               Crystallographic Information Format file 
#               Produced by PyCifRW module
# 
#  This is a CIF file.  CIF has been adopted by the International
#  Union of Crystallography as the standard for data archiving and 
#  transmission.
#
#  For information on this file format, follow the CIF links at
#  http://www.iucr.org
##########################################################################

data_Ba2SrWO6
_symmetry_space_group_name_H-M          'P 1'
_cell_length_a                          6.1149511009
_cell_length_b                          6.1149510964
_cell_length_c                          6.11495109662
_cell_angle_alpha                       60.943914504
_cell_angle_beta                        60.9439145253
_cell_angle_gamma                       60.9439144779
_chemical_name_systematic               'Generated by pymatgen'
_symmetry_Int_Tables_number             1
_chemical_formula_structural            Ba2SrWO6
_chemical_formula_sum                   'Ba2 Sr1 W1 O6'
_cell_volume                            165.121785714
_cell_formula_units_Z                   1
loop_
  _symmetry_equiv_pos_site_id
  _symmetry_equiv_pos_as_xyz
   1  'x, y, z'
 
loop_
  _atom_site_type_symbol
  _atom_site_label
  _atom_site_symmetry_multiplicity
  _atom_site_fract_x
  _atom_site_fract_y
  _atom_site_fract_z
  _atom_site_attached_hydrogens
  _atom_site_B_iso_or_equiv
  _atom_site_occupancy
   O  O1  1  0.659276  0.285517  0.783422  0  .  1
   O  O2  1  0.285517  0.783422  0.659276  0  .  1
   O  O3  1  0.783423  0.659276  0.285518  0  .  1
   O  O4  1  0.340723  0.714481  0.216578  0  .  1
   O  O5  1  0.216578  0.340724  0.714483  0  .  1
   O  O6  1  0.714482  0.216578  0.340724  0  .  1
   Sr  Sr7  1  0.000000  0.000000  0.000000  0  .  1
   Ba  Ba8  1  0.253096  0.253096  0.253098  0  .  1
   Ba  Ba9  1  0.746903  0.746904  0.746904  0  .  1
   W  W10  1  0.500000  0.500000  0.499999  0  .  1
 
