#\#CIF1.1
##########################################################################
#               Crystallographic Information Format file 
#               Produced by PyCifRW module
# 
#  This is a CIF file.  CIF has been adopted by the International
#  Union of Crystallography as the standard for data archiving and 
#  transmission.
#
#  For information on this file format, follow the CIF links at
#  http://www.iucr.org
##########################################################################

data_Ba2Ti13O22
_symmetry_space_group_name_H-M          'P 1'
_cell_length_a                          7.72741184298
_cell_length_b                          7.72741184372
_cell_length_c                          14.22865245
_cell_angle_alpha                       90.0
_cell_angle_beta                        90.0
_cell_angle_gamma                       98.5787846693
_chemical_name_systematic               'Generated by pymatgen'
_symmetry_Int_Tables_number             1
_chemical_formula_structural            Ba2Ti13O22
_chemical_formula_sum                   'Ba4 Ti26 O44'
_cell_volume                            840.128037796
_cell_formula_units_Z                   2
loop_
  _symmetry_equiv_pos_site_id
  _symmetry_equiv_pos_as_xyz
   1  'x, y, z'
 
loop_
  _atom_site_type_symbol
  _atom_site_label
  _atom_site_symmetry_multiplicity
  _atom_site_fract_x
  _atom_site_fract_y
  _atom_site_fract_z
  _atom_site_attached_hydrogens
  _atom_site_B_iso_or_equiv
  _atom_site_occupancy
   O  O1  1  0.213180  0.971556  0.420059  0  .  1
   O  O2  1  0.286820  0.528444  0.920059  0  .  1
   O  O3  1  0.471556  0.713180  0.079941  0  .  1
   O  O4  1  0.028444  0.786820  0.579941  0  .  1
   O  O5  1  0.786820  0.028444  0.579941  0  .  1
   O  O6  1  0.713180  0.471556  0.079941  0  .  1
   O  O7  1  0.528444  0.286820  0.920059  0  .  1
   O  O8  1  0.971556  0.213180  0.420059  0  .  1
   O  O9  1  0.382172  0.125204  0.252342  0  .  1
   O  O10  1  0.117828  0.374796  0.752342  0  .  1
   O  O11  1  0.625204  0.882172  0.247658  0  .  1
   O  O12  1  0.874796  0.617828  0.747658  0  .  1
   O  O13  1  0.617828  0.874796  0.747658  0  .  1
   O  O14  1  0.882172  0.625204  0.247658  0  .  1
   O  O15  1  0.374796  0.117828  0.752342  0  .  1
   O  O16  1  0.125204  0.382172  0.252342  0  .  1
   O  O17  1  0.657750  0.657750  0.594229  0  .  1
   O  O18  1  0.842250  0.842250  0.094229  0  .  1
   O  O19  1  0.157750  0.157750  0.905771  0  .  1
   O  O20  1  0.342250  0.342250  0.405771  0  .  1
   O  O21  1  0.212685  0.964396  0.080013  0  .  1
   O  O22  1  0.287315  0.535604  0.580013  0  .  1
   O  O23  1  0.464396  0.712685  0.419987  0  .  1
   O  O24  1  0.035604  0.787315  0.919987  0  .  1
   O  O25  1  0.787315  0.035604  0.919987  0  .  1
   O  O26  1  0.712685  0.464396  0.419987  0  .  1
   O  O27  1  0.535604  0.287315  0.580013  0  .  1
   O  O28  1  0.964396  0.212685  0.080013  0  .  1
   O  O29  1  0.270729  0.770729  0.250000  0  .  1
   O  O30  1  0.229271  0.729271  0.750000  0  .  1
   O  O31  1  0.098519  0.598318  0.410175  0  .  1
   O  O32  1  0.401481  0.901682  0.910175  0  .  1
   O  O33  1  0.098318  0.598519  0.089825  0  .  1
   O  O34  1  0.401682  0.901481  0.589825  0  .  1
   O  O35  1  0.901481  0.401682  0.589825  0  .  1
   O  O36  1  0.598519  0.098318  0.089825  0  .  1
   O  O37  1  0.901682  0.401481  0.910175  0  .  1
   O  O38  1  0.598318  0.098519  0.410175  0  .  1
   O  O39  1  0.004332  0.004332  0.251722  0  .  1
   O  O40  1  0.495668  0.495668  0.751722  0  .  1
   O  O41  1  0.504332  0.504332  0.248278  0  .  1
   O  O42  1  0.995668  0.995668  0.748278  0  .  1
   O  O43  1  0.770729  0.270729  0.250000  0  .  1
   O  O44  1  0.729271  0.229271  0.750000  0  .  1
   Ti  Ti45  1  0.557575  0.298339  0.325942  0  .  1
   Ti  Ti46  1  0.942425  0.201661  0.825942  0  .  1
   Ti  Ti47  1  0.798339  0.057575  0.174058  0  .  1
   Ti  Ti48  1  0.701661  0.442425  0.674058  0  .  1
   Ti  Ti49  1  0.442425  0.701661  0.674058  0  .  1
   Ti  Ti50  1  0.057575  0.798339  0.174058  0  .  1
   Ti  Ti51  1  0.201661  0.942425  0.825942  0  .  1
   Ti  Ti52  1  0.298339  0.557575  0.325942  0  .  1
   Ti  Ti53  1  0.243974  0.756026  0.500000  0  .  1
   Ti  Ti54  1  0.256026  0.743974  0.000000  0  .  1
   Ti  Ti55  1  0.756026  0.243974  0.500000  0  .  1
   Ti  Ti56  1  0.743974  0.256026  0.000000  0  .  1
   Ti  Ti57  1  0.426276  0.921724  0.153182  0  .  1
   Ti  Ti58  1  0.073724  0.578276  0.653182  0  .  1
   Ti  Ti59  1  0.421724  0.926276  0.346818  0  .  1
   Ti  Ti60  1  0.078276  0.573724  0.846818  0  .  1
   Ti  Ti61  1  0.573724  0.078276  0.846818  0  .  1
   Ti  Ti62  1  0.926276  0.421724  0.346818  0  .  1
   Ti  Ti63  1  0.578276  0.073724  0.653182  0  .  1
   Ti  Ti64  1  0.921724  0.426276  0.153182  0  .  1
   Ti  Ti65  1  0.500000  0.500000  0.500000  0  .  1
   Ti  Ti66  1  0.000000  0.000000  0.000000  0  .  1
   Ti  Ti67  1  0.832756  0.832756  0.666577  0  .  1
   Ti  Ti68  1  0.667244  0.667244  0.166577  0  .  1
   Ti  Ti69  1  0.332756  0.332756  0.833423  0  .  1
   Ti  Ti70  1  0.167244  0.167244  0.333423  0  .  1
   Ba  Ba71  1  0.666687  0.666687  0.912254  0  .  1
   Ba  Ba72  1  0.833313  0.833313  0.412254  0  .  1
   Ba  Ba73  1  0.166687  0.166687  0.587746  0  .  1
   Ba  Ba74  1  0.333313  0.333313  0.087746  0  .  1
 
