#\#CIF1.1
##########################################################################
#               Crystallographic Information Format file 
#               Produced by PyCifRW module
# 
#  This is a CIF file.  CIF has been adopted by the International
#  Union of Crystallography as the standard for data archiving and 
#  transmission.
#
#  For information on this file format, follow the CIF links at
#  http://www.iucr.org
##########################################################################

data_Ba2TiS4
_symmetry_space_group_name_H-M          'P 1'
_cell_length_a                          6.90665652
_cell_length_b                          9.13939005
_cell_length_c                          12.64034774
_cell_angle_alpha                       90.0
_cell_angle_beta                        90.0
_cell_angle_gamma                       90.0
_chemical_name_systematic               'Generated by pymatgen'
_symmetry_Int_Tables_number             1
_chemical_formula_structural            Ba2TiS4
_chemical_formula_sum                   'Ba8 Ti4 S16'
_cell_volume                            797.891966636
_cell_formula_units_Z                   4
loop_
  _symmetry_equiv_pos_site_id
  _symmetry_equiv_pos_as_xyz
   1  'x, y, z'
 
loop_
  _atom_site_type_symbol
  _atom_site_label
  _atom_site_symmetry_multiplicity
  _atom_site_fract_x
  _atom_site_fract_y
  _atom_site_fract_z
  _atom_site_attached_hydrogens
  _atom_site_B_iso_or_equiv
  _atom_site_occupancy
   S  S1  1  0.250000  0.806802  0.097458  0  .  1
   S  S2  1  0.750000  0.193198  0.902542  0  .  1
   S  S3  1  0.250000  0.306802  0.402542  0  .  1
   S  S4  1  0.750000  0.693198  0.597458  0  .  1
   S  S5  1  0.508425  0.331728  0.648224  0  .  1
   S  S6  1  0.008425  0.668272  0.351776  0  .  1
   S  S7  1  0.991575  0.831728  0.851776  0  .  1
   S  S8  1  0.491575  0.168272  0.148224  0  .  1
   S  S9  1  0.491575  0.668272  0.351776  0  .  1
   S  S10  1  0.991575  0.331728  0.648224  0  .  1
   S  S11  1  0.008425  0.168272  0.148224  0  .  1
   S  S12  1  0.508425  0.831728  0.851776  0  .  1
   S  S13  1  0.750000  0.519078  0.088666  0  .  1
   S  S14  1  0.250000  0.480922  0.911334  0  .  1
   S  S15  1  0.750000  0.019078  0.411334  0  .  1
   S  S16  1  0.250000  0.980922  0.588666  0  .  1
   Ti  Ti17  1  0.250000  0.726960  0.927673  0  .  1
   Ti  Ti18  1  0.750000  0.273040  0.072327  0  .  1
   Ti  Ti19  1  0.250000  0.226960  0.572327  0  .  1
   Ti  Ti20  1  0.750000  0.773040  0.427673  0  .  1
   Ba  Ba21  1  0.250000  0.632192  0.574796  0  .  1
   Ba  Ba22  1  0.750000  0.367808  0.425204  0  .  1
   Ba  Ba23  1  0.250000  0.132192  0.925204  0  .  1
   Ba  Ba24  1  0.750000  0.867808  0.074796  0  .  1
   Ba  Ba25  1  0.250000  0.976588  0.325152  0  .  1
   Ba  Ba26  1  0.750000  0.023412  0.674848  0  .  1
   Ba  Ba27  1  0.250000  0.476588  0.174848  0  .  1
   Ba  Ba28  1  0.750000  0.523412  0.825152  0  .  1
 
