#\#CIF1.1
##########################################################################
#               Crystallographic Information Format file 
#               Produced by PyCifRW module
# 
#  This is a CIF file.  CIF has been adopted by the International
#  Union of Crystallography as the standard for data archiving and 
#  transmission.
#
#  For information on this file format, follow the CIF links at
#  http://www.iucr.org
##########################################################################

data_Ba2V3O9
_symmetry_space_group_name_H-M          'P 1'
_cell_length_a                          5.95077743
_cell_length_b                          8.56249924447
_cell_length_c                          9.49945063676
_cell_angle_alpha                       114.449910952
_cell_angle_beta                        90.0
_cell_angle_gamma                       90.0
_chemical_name_systematic               'Generated by pymatgen'
_symmetry_Int_Tables_number             1
_chemical_formula_structural            Ba2V3O9
_chemical_formula_sum                   'Ba4 V6 O18'
_cell_volume                            440.624332797
_cell_formula_units_Z                   2
loop_
  _symmetry_equiv_pos_site_id
  _symmetry_equiv_pos_as_xyz
   1  'x, y, z'
 
loop_
  _atom_site_type_symbol
  _atom_site_label
  _atom_site_symmetry_multiplicity
  _atom_site_fract_x
  _atom_site_fract_y
  _atom_site_fract_z
  _atom_site_attached_hydrogens
  _atom_site_B_iso_or_equiv
  _atom_site_occupancy
   O  O1  1  0.002996  0.473301  0.700812  0  .  1
   O  O2  1  0.502996  0.526698  0.299188  0  .  1
   O  O3  1  0.017648  0.987148  0.809591  0  .  1
   O  O4  1  0.517648  0.012852  0.190409  0  .  1
   O  O5  1  0.253973  0.012284  0.568543  0  .  1
   O  O6  1  0.753973  0.987716  0.431457  0  .  1
   O  O7  1  0.251355  0.377985  0.909628  0  .  1
   O  O8  1  0.751355  0.622014  0.090372  0  .  1
   O  O9  1  0.249781  0.719684  0.950455  0  .  1
   O  O10  1  0.749781  0.280316  0.049545  0  .  1
   O  O11  1  0.753070  0.321345  0.420695  0  .  1
   O  O12  1  0.253069  0.678656  0.579305  0  .  1
   O  O13  1  0.997731  0.526681  0.298912  0  .  1
   O  O14  1  0.497730  0.473320  0.701088  0  .  1
   O  O15  1  0.479468  0.987389  0.812660  0  .  1
   O  O16  1  0.248927  0.349939  0.426256  0  .  1
   O  O17  1  0.979466  0.012612  0.187340  0  .  1
   O  O18  1  0.748926  0.650061  0.573744  0  .  1
   V  V19  1  0.518475  0.512839  0.506388  0  .  1
   V  V20  1  0.018475  0.487162  0.493613  0  .  1
   V  V21  1  0.249964  0.915592  0.691981  0  .  1
   V  V22  1  0.749963  0.084407  0.308019  0  .  1
   V  V23  1  0.250163  0.511041  0.817243  0  .  1
   V  V24  1  0.750163  0.488960  0.182757  0  .  1
   Ba  Ba25  1  0.250827  0.204669  0.090872  0  .  1
   Ba  Ba26  1  0.750825  0.795331  0.909128  0  .  1
   Ba  Ba27  1  0.246485  0.795614  0.264822  0  .  1
   Ba  Ba28  1  0.746486  0.204387  0.735179  0  .  1
 
