#\#CIF1.1
##########################################################################
#               Crystallographic Information Format file 
#               Produced by PyCifRW module
# 
#  This is a CIF file.  CIF has been adopted by the International
#  Union of Crystallography as the standard for data archiving and 
#  transmission.
#
#  For information on this file format, follow the CIF links at
#  http://www.iucr.org
##########################################################################

data_Ba2V2ZnO8
_symmetry_space_group_name_H-M          'P 1'
_cell_length_a                          6.27053119467
_cell_length_b                          8.06773124141
_cell_length_c                          16.44960176
_cell_angle_alpha                       90.0
_cell_angle_beta                        90.0
_cell_angle_gamma                       90.3283551003
_chemical_name_systematic               'Generated by pymatgen'
_symmetry_Int_Tables_number             1
_chemical_formula_structural            Ba2V2ZnO8
_chemical_formula_sum                   'Ba8 V8 Zn4 O32'
_cell_volume                            832.154586956
_cell_formula_units_Z                   4
loop_
  _symmetry_equiv_pos_site_id
  _symmetry_equiv_pos_as_xyz
   1  'x, y, z'
 
loop_
  _atom_site_type_symbol
  _atom_site_label
  _atom_site_symmetry_multiplicity
  _atom_site_fract_x
  _atom_site_fract_y
  _atom_site_fract_z
  _atom_site_attached_hydrogens
  _atom_site_B_iso_or_equiv
  _atom_site_occupancy
   Ba  Ba1  1  0.737036  0.638799  0.457488  0  .  1
   Ba  Ba2  1  0.762964  0.361201  0.957488  0  .  1
   Ba  Ba3  1  0.237036  0.638799  0.042512  0  .  1
   Ba  Ba4  1  0.777337  0.143716  0.370741  0  .  1
   Ba  Ba5  1  0.722663  0.856284  0.870741  0  .  1
   Ba  Ba6  1  0.262964  0.361201  0.542512  0  .  1
   Ba  Ba7  1  0.222663  0.856284  0.629259  0  .  1
   Ba  Ba8  1  0.277337  0.143716  0.129259  0  .  1
   V  V9  1  0.764127  0.595006  0.669714  0  .  1
   V  V10  1  0.735873  0.404994  0.169714  0  .  1
   V  V11  1  0.753641  0.876403  0.091050  0  .  1
   V  V12  1  0.235873  0.404994  0.330286  0  .  1
   V  V13  1  0.253641  0.876403  0.408950  0  .  1
   V  V14  1  0.246359  0.123597  0.908950  0  .  1
   V  V15  1  0.264127  0.595006  0.830286  0  .  1
   V  V16  1  0.746359  0.123597  0.591050  0  .  1
   Zn  Zn17  1  0.997777  0.727024  0.249961  0  .  1
   Zn  Zn18  1  0.502223  0.272976  0.749961  0  .  1
   Zn  Zn19  1  0.497777  0.727024  0.250039  0  .  1
   Zn  Zn20  1  0.002223  0.272976  0.750039  0  .  1
   O  O21  1  0.467068  0.396806  0.387262  0  .  1
   O  O22  1  0.008591  0.850411  0.353565  0  .  1
   O  O23  1  0.226012  0.284295  0.976372  0  .  1
   O  O24  1  0.686281  0.221105  0.217433  0  .  1
   O  O25  1  0.491261  0.868904  0.348022  0  .  1
   O  O26  1  0.273988  0.715705  0.476372  0  .  1
   O  O27  1  0.726012  0.284295  0.523628  0  .  1
   O  O28  1  0.813719  0.778895  0.717433  0  .  1
   O  O29  1  0.260611  0.947658  0.966497  0  .  1
   O  O30  1  0.491409  0.149589  0.853565  0  .  1
   O  O31  1  0.971121  0.575903  0.600617  0  .  1
   O  O32  1  0.008739  0.131096  0.848022  0  .  1
   O  O33  1  0.532932  0.603194  0.612738  0  .  1
   O  O34  1  0.739389  0.052342  0.033503  0  .  1
   O  O35  1  0.967068  0.396806  0.112738  0  .  1
   O  O36  1  0.253313  0.421946  0.757163  0  .  1
   O  O37  1  0.760611  0.947658  0.533503  0  .  1
   O  O38  1  0.032932  0.603194  0.887262  0  .  1
   O  O39  1  0.508739  0.131096  0.651978  0  .  1
   O  O40  1  0.246687  0.578054  0.257163  0  .  1
   O  O41  1  0.753313  0.421946  0.742837  0  .  1
   O  O42  1  0.528879  0.424097  0.100617  0  .  1
   O  O43  1  0.313719  0.778895  0.782567  0  .  1
   O  O44  1  0.991409  0.149589  0.646435  0  .  1
   O  O45  1  0.773988  0.715705  0.023628  0  .  1
   O  O46  1  0.746687  0.578054  0.242837  0  .  1
   O  O47  1  0.239389  0.052342  0.466497  0  .  1
   O  O48  1  0.508591  0.850411  0.146435  0  .  1
   O  O49  1  0.991261  0.868904  0.151978  0  .  1
   O  O50  1  0.028879  0.424097  0.399383  0  .  1
   O  O51  1  0.471121  0.575903  0.899383  0  .  1
   O  O52  1  0.186281  0.221105  0.282567  0  .  1
 
