#\#CIF1.1
##########################################################################
#               Crystallographic Information Format file 
#               Produced by PyCifRW module
# 
#  This is a CIF file.  CIF has been adopted by the International
#  Union of Crystallography as the standard for data archiving and 
#  transmission.
#
#  For information on this file format, follow the CIF links at
#  http://www.iucr.org
##########################################################################

data_Ba3CrO5
_symmetry_space_group_name_H-M          'P 1'
_cell_length_a                          7.39904285009
_cell_length_b                          7.9003106888
_cell_length_c                          7.39904271673
_cell_angle_alpha                       117.922408592
_cell_angle_beta                        90.00000256
_cell_angle_gamma                       117.922403628
_chemical_name_systematic               'Generated by pymatgen'
_symmetry_Int_Tables_number             1
_chemical_formula_structural            Ba3CrO5
_chemical_formula_sum                   'Ba6 Cr2 O10'
_cell_volume                            324.074974782
_cell_formula_units_Z                   2
loop_
  _symmetry_equiv_pos_site_id
  _symmetry_equiv_pos_as_xyz
   1  'x, y, z'
 
loop_
  _atom_site_type_symbol
  _atom_site_label
  _atom_site_symmetry_multiplicity
  _atom_site_fract_x
  _atom_site_fract_y
  _atom_site_fract_z
  _atom_site_attached_hydrogens
  _atom_site_B_iso_or_equiv
  _atom_site_occupancy
   Ba  Ba1  1  0.750000  0.500000  0.750001  0  .  1
   Ba  Ba2  1  0.250000  0.500000  0.250001  0  .  1
   Ba  Ba3  1  0.319197  -0.000005  0.180799  0  .  1
   Ba  Ba4  1  0.680798  -0.000005  0.819197  0  .  1
   Ba  Ba5  1  0.180803  0.000005  0.680802  0  .  1
   Ba  Ba6  1  0.819202  0.000005  0.319203  0  .  1
   Cr  Cr7  1  0.250000  0.500000  0.749999  0  .  1
   Cr  Cr8  1  0.750000  0.500000  0.250000  0  .  1
   O  O9  1  0.000000  0.000000  0.000000  0  .  1
   O  O10  1  0.500000  0.000000  0.500000  0  .  1
   O  O11  1  0.520946  0.313534  0.020945  0  .  1
   O  O12  1  0.207406  0.686464  0.707406  0  .  1
   O  O13  1  0.479057  0.686464  0.979058  0  .  1
   O  O14  1  0.979053  0.686465  0.207411  0  .  1
   O  O15  1  0.707412  0.686466  0.479054  0  .  1
   O  O16  1  0.020942  0.313537  0.792594  0  .  1
   O  O17  1  0.292594  0.313537  0.520942  0  .  1
   O  O18  1  0.792588  0.313534  0.292588  0  .  1
 
