#\#CIF1.1
##########################################################################
#               Crystallographic Information Format file 
#               Produced by PyCifRW module
# 
#  This is a CIF file.  CIF has been adopted by the International
#  Union of Crystallography as the standard for data archiving and 
#  transmission.
#
#  For information on this file format, follow the CIF links at
#  http://www.iucr.org
##########################################################################

data_Ba3Cr2O8
_symmetry_space_group_name_H-M          'P 1'
_cell_length_a                          7.96345241111
_cell_length_b                          7.96345241129
_cell_length_c                          7.96345240831
_cell_angle_alpha                       43.0901359628
_cell_angle_beta                        43.0901359549
_cell_angle_gamma                       43.0901359632
_chemical_name_systematic               'Generated by pymatgen'
_symmetry_Int_Tables_number             1
_chemical_formula_structural            Ba3Cr2O8
_chemical_formula_sum                   'Ba3 Cr2 O8'
_cell_volume                            213.665519919
_cell_formula_units_Z                   1
loop_
  _symmetry_equiv_pos_site_id
  _symmetry_equiv_pos_as_xyz
   1  'x, y, z'
 
loop_
  _atom_site_type_symbol
  _atom_site_label
  _atom_site_symmetry_multiplicity
  _atom_site_fract_x
  _atom_site_fract_y
  _atom_site_fract_z
  _atom_site_attached_hydrogens
  _atom_site_B_iso_or_equiv
  _atom_site_occupancy
   O  O1  1  0.671929  0.671929  0.671929  0  .  1
   O  O2  1  0.328071  0.328071  0.328071  0  .  1
   O  O3  1  0.273513  0.273513  0.756995  0  .  1
   O  O4  1  0.273513  0.756995  0.273513  0  .  1
   O  O5  1  0.756995  0.273513  0.273513  0  .  1
   O  O6  1  0.726487  0.243005  0.726487  0  .  1
   O  O7  1  0.726487  0.726487  0.243005  0  .  1
   O  O8  1  0.243005  0.726487  0.726487  0  .  1
   Cr  Cr9  1  0.592698  0.592698  0.592698  0  .  1
   Cr  Cr10  1  0.407302  0.407302  0.407302  0  .  1
   Ba  Ba11  1  0.793743  0.793743  0.793743  0  .  1
   Ba  Ba12  1  0.206257  0.206257  0.206257  0  .  1
   Ba  Ba13  1  0.000000  0.000000  0.000000  0  .  1
 
