#\#CIF1.1
##########################################################################
#               Crystallographic Information Format file 
#               Produced by PyCifRW module
# 
#  This is a CIF file.  CIF has been adopted by the International
#  Union of Crystallography as the standard for data archiving and 
#  transmission.
#
#  For information on this file format, follow the CIF links at
#  http://www.iucr.org
##########################################################################

data_Ba3Fe3Se7
_symmetry_space_group_name_H-M          'P 1'
_cell_length_a                          11.02010854
_cell_length_b                          11.020108126
_cell_length_c                          7.35335925
_cell_angle_alpha                       90.0
_cell_angle_beta                        90.0
_cell_angle_gamma                       120.000001243
_chemical_name_systematic               'Generated by pymatgen'
_symmetry_Int_Tables_number             1
_chemical_formula_structural            Ba3Fe3Se7
_chemical_formula_sum                   'Ba6 Fe6 Se14'
_cell_volume                            773.3714545
_cell_formula_units_Z                   2
loop_
  _symmetry_equiv_pos_site_id
  _symmetry_equiv_pos_as_xyz
   1  'x, y, z'
 
loop_
  _atom_site_type_symbol
  _atom_site_label
  _atom_site_symmetry_multiplicity
  _atom_site_fract_x
  _atom_site_fract_y
  _atom_site_fract_z
  _atom_site_attached_hydrogens
  _atom_site_B_iso_or_equiv
  _atom_site_occupancy
   Ba  Ba1  1  0.371854  0.185927  0.504021  0  .  1
   Ba  Ba2  1  0.628146  0.814073  1.004021  0  .  1
   Ba  Ba3  1  0.185927  0.371854  1.004021  0  .  1
   Ba  Ba4  1  0.185927  0.814073  1.004021  0  .  1
   Ba  Ba5  1  0.814073  0.628146  0.504021  0  .  1
   Ba  Ba6  1  0.814073  0.185927  0.504021  0  .  1
   Fe  Fe7  1  0.254865  0.745135  0.488591  0  .  1
   Fe  Fe8  1  0.745135  0.490269  0.988591  0  .  1
   Fe  Fe9  1  0.254865  0.509731  0.488591  0  .  1
   Fe  Fe10  1  0.490269  0.745135  0.488591  0  .  1
   Fe  Fe11  1  0.509731  0.254865  0.988591  0  .  1
   Fe  Fe12  1  0.745135  0.254865  0.988591  0  .  1
   Se  Se13  1  0.725434  0.862717  0.576034  0  .  1
   Se  Se14  1  0.454843  0.545157  0.314675  0  .  1
   Se  Se15  1  0.137283  0.862717  0.576034  0  .  1
   Se  Se16  1  0.666667  0.333333  0.247536  0  .  1
   Se  Se17  1  0.333333  0.666667  0.747536  0  .  1
   Se  Se18  1  0.454843  0.909685  0.314675  0  .  1
   Se  Se19  1  0.862717  0.725434  0.076034  0  .  1
   Se  Se20  1  0.545157  0.090315  0.814675  0  .  1
   Se  Se21  1  0.137283  0.274566  0.576034  0  .  1
   Se  Se22  1  0.274566  0.137283  0.076034  0  .  1
   Se  Se23  1  0.909685  0.454843  0.814675  0  .  1
   Se  Se24  1  0.545157  0.454843  0.814675  0  .  1
   Se  Se25  1  0.090315  0.545157  0.314675  0  .  1
   Se  Se26  1  0.862717  0.137283  0.076034  0  .  1
 
