#\#CIF1.1
##########################################################################
#               Crystallographic Information Format file 
#               Produced by PyCifRW module
# 
#  This is a CIF file.  CIF has been adopted by the International
#  Union of Crystallography as the standard for data archiving and 
#  transmission.
#
#  For information on this file format, follow the CIF links at
#  http://www.iucr.org
##########################################################################

data_Ba3Ti3O8
_symmetry_space_group_name_H-M          'P 1'
_cell_length_a                          5.79130475738
_cell_length_b                          5.79130493034
_cell_length_c                          7.0276246084
_cell_angle_alpha                       88.4646319248
_cell_angle_beta                        91.5353680034
_cell_angle_gamma                       121.209570269
_chemical_name_systematic               'Generated by pymatgen'
_symmetry_Int_Tables_number             1
_chemical_formula_structural            Ba3Ti3O8
_chemical_formula_sum                   'Ba3 Ti3 O8'
_cell_volume                            201.494454327
_cell_formula_units_Z                   1
loop_
  _symmetry_equiv_pos_site_id
  _symmetry_equiv_pos_as_xyz
   1  'x, y, z'
 
loop_
  _atom_site_type_symbol
  _atom_site_label
  _atom_site_symmetry_multiplicity
  _atom_site_fract_x
  _atom_site_fract_y
  _atom_site_fract_z
  _atom_site_attached_hydrogens
  _atom_site_B_iso_or_equiv
  _atom_site_occupancy
   Ba  Ba1  1  0.001916  0.998084  0.001859  0  .  1
   Ba  Ba2  1  0.331419  0.668581  0.664806  0  .  1
   Ba  Ba3  1  0.666668  0.333332  0.333337  0  .  1
   O  O4  1  0.001836  0.506252  0.006574  0  .  1
   O  O5  1  0.166663  0.333328  0.333340  0  .  1
   O  O6  1  0.493748  0.998164  0.006574  0  .  1
   O  O7  1  0.666672  0.833337  0.333340  0  .  1
   O  O8  1  0.331493  0.160412  0.660096  0  .  1
   O  O9  1  0.499701  0.500299  0.993437  0  .  1
   O  O10  1  0.839588  0.668507  0.660096  0  .  1
   O  O11  1  0.833637  0.166363  0.673232  0  .  1
   Ti  Ti12  1  0.984418  0.015582  0.518272  0  .  1
   Ti  Ti13  1  0.348903  0.651097  0.148406  0  .  1
   Ti  Ti14  1  0.666669  0.333331  0.833330  0  .  1
 
