#\#CIF1.1
##########################################################################
#               Crystallographic Information Format file 
#               Produced by PyCifRW module
# 
#  This is a CIF file.  CIF has been adopted by the International
#  Union of Crystallography as the standard for data archiving and 
#  transmission.
#
#  For information on this file format, follow the CIF links at
#  http://www.iucr.org
##########################################################################

data_Ba4Ti11O26
_symmetry_space_group_name_H-M          'P 1'
_cell_length_a                          7.86553311
_cell_length_b                          15.8331319844
_cell_length_c                          10.0280877485
_cell_angle_alpha                       92.3689101648
_cell_angle_beta                        66.910093302
_cell_angle_gamma                       75.6178344988
_chemical_name_systematic               'Generated by pymatgen'
_symmetry_Int_Tables_number             1
_chemical_formula_structural            Ba4Ti11O26
_chemical_formula_sum                   'Ba8 Ti22 O52'
_cell_volume                            1099.23694057
_cell_formula_units_Z                   2
loop_
  _symmetry_equiv_pos_site_id
  _symmetry_equiv_pos_as_xyz
   1  'x, y, z'
 
loop_
  _atom_site_type_symbol
  _atom_site_label
  _atom_site_symmetry_multiplicity
  _atom_site_fract_x
  _atom_site_fract_y
  _atom_site_fract_z
  _atom_site_attached_hydrogens
  _atom_site_B_iso_or_equiv
  _atom_site_occupancy
   Ba  Ba1  1  0.579011  0.059558  0.763784  0  .  1
   Ba  Ba2  1  0.097646  0.059558  0.763784  0  .  1
   Ba  Ba3  1  0.910711  0.454746  0.223833  0  .  1
   Ba  Ba4  1  0.416545  0.449484  0.217426  0  .  1
   Ba  Ba5  1  0.589289  0.545254  0.776167  0  .  1
   Ba  Ba6  1  0.083455  0.550516  0.782574  0  .  1
   Ba  Ba7  1  0.920989  0.940442  0.236216  0  .  1
   Ba  Ba8  1  0.402354  0.940442  0.236216  0  .  1
   Ti  Ti9  1  0.640762  0.117817  0.100659  0  .  1
   Ti  Ti10  1  0.147042  0.121457  0.084458  0  .  1
   Ti  Ti11  1  0.946149  0.168117  0.439584  0  .  1
   Ti  Ti12  1  0.442034  0.167551  0.448380  0  .  1
   Ti  Ti13  1  0.739428  0.245422  0.775723  0  .  1
   Ti  Ti14  1  0.252912  0.262008  0.232430  0  .  1
   Ti  Ti15  1  0.752650  0.262008  0.232430  0  .  1
   Ti  Ti16  1  0.545136  0.327051  0.567539  0  .  1
   Ti  Ti17  1  0.060272  0.327051  0.567539  0  .  1
   Ti  Ti18  1  0.348046  0.376861  0.900238  0  .  1
   Ti  Ti19  1  0.874856  0.376861  0.900238  0  .  1
   Ti  Ti20  1  0.151954  0.623139  0.099762  0  .  1
   Ti  Ti21  1  0.625144  0.623139  0.099762  0  .  1
   Ti  Ti22  1  0.954864  0.672949  0.432461  0  .  1
   Ti  Ti23  1  0.439728  0.672949  0.432461  0  .  1
   Ti  Ti24  1  0.247088  0.737992  0.767570  0  .  1
   Ti  Ti25  1  0.747350  0.737992  0.767570  0  .  1
   Ti  Ti26  1  0.760572  0.754578  0.224277  0  .  1
   Ti  Ti27  1  0.553851  0.831883  0.560416  0  .  1
   Ti  Ti28  1  0.057966  0.832449  0.551620  0  .  1
   Ti  Ti29  1  0.859238  0.882183  0.899341  0  .  1
   Ti  Ti30  1  0.352958  0.878543  0.915542  0  .  1
   O  O31  1  0.750000  0.000000  0.000000  0  .  1
   O  O32  1  0.250000  0.000000  0.000000  0  .  1
   O  O33  1  0.569597  0.074540  0.286266  0  .  1
   O  O34  1  0.060991  0.070952  0.307067  0  .  1
   O  O35  1  0.872049  0.133784  0.622119  0  .  1
   O  O36  1  0.402318  0.105951  0.589414  0  .  1
   O  O37  1  0.211292  0.158795  0.918622  0  .  1
   O  O38  1  0.707915  0.170134  0.914035  0  .  1
   O  O39  1  0.374826  0.138851  0.118183  0  .  1
   O  O40  1  0.868141  0.138851  0.118183  0  .  1
   O  O41  1  0.685049  0.200333  0.430032  0  .  1
   O  O42  1  0.184587  0.200333  0.430032  0  .  1
   O  O43  1  0.497618  0.268127  0.756571  0  .  1
   O  O44  1  0.977684  0.268127  0.756571  0  .  1
   O  O45  1  0.510566  0.243710  0.235159  0  .  1
   O  O46  1  0.009439  0.238619  0.242502  0  .  1
   O  O47  1  0.814786  0.300226  0.570201  0  .  1
   O  O48  1  0.323938  0.299494  0.552629  0  .  1
   O  O49  1  0.619128  0.366912  0.894834  0  .  1
   O  O50  1  0.105258  0.384429  0.905055  0  .  1
   O  O51  1  0.286686  0.330803  0.086357  0  .  1
   O  O52  1  0.796154  0.330803  0.086357  0  .  1
   O  O53  1  0.120992  0.366412  0.381226  0  .  1
   O  O54  1  0.631369  0.366412  0.381226  0  .  1
   O  O55  1  0.428807  0.428630  0.702494  0  .  1
   O  O56  1  0.940070  0.428630  0.702494  0  .  1
   O  O57  1  0.250000  0.500000  0.000000  0  .  1
   O  O58  1  0.750000  0.500000  0.000000  0  .  1
   O  O59  1  0.071193  0.571370  0.297506  0  .  1
   O  O60  1  0.559930  0.571370  0.297506  0  .  1
   O  O61  1  0.379008  0.633588  0.618774  0  .  1
   O  O62  1  0.868631  0.633588  0.618774  0  .  1
   O  O63  1  0.213314  0.669197  0.913643  0  .  1
   O  O64  1  0.703846  0.669197  0.913643  0  .  1
   O  O65  1  0.880872  0.633088  0.105166  0  .  1
   O  O66  1  0.394742  0.615571  0.094945  0  .  1
   O  O67  1  0.685214  0.699774  0.429799  0  .  1
   O  O68  1  0.176062  0.700506  0.447371  0  .  1
   O  O69  1  0.490561  0.761381  0.757498  0  .  1
   O  O70  1  0.989434  0.756290  0.764841  0  .  1
   O  O71  1  0.002382  0.731873  0.243429  0  .  1
   O  O72  1  0.522316  0.731873  0.243429  0  .  1
   O  O73  1  0.315413  0.799667  0.569968  0  .  1
   O  O74  1  0.814951  0.799667  0.569968  0  .  1
   O  O75  1  0.125174  0.861149  0.881817  0  .  1
   O  O76  1  0.631859  0.861149  0.881817  0  .  1
   O  O77  1  0.288708  0.841205  0.081378  0  .  1
   O  O78  1  0.792085  0.829866  0.085965  0  .  1
   O  O79  1  0.627951  0.866216  0.377881  0  .  1
   O  O80  1  0.097682  0.894049  0.410586  0  .  1
   O  O81  1  0.439009  0.929048  0.692933  0  .  1
   O  O82  1  0.930403  0.925460  0.713734  0  .  1
 
