#\#CIF1.1
##########################################################################
#               Crystallographic Information Format file 
#               Produced by PyCifRW module
# 
#  This is a CIF file.  CIF has been adopted by the International
#  Union of Crystallography as the standard for data archiving and 
#  transmission.
#
#  For information on this file format, follow the CIF links at
#  http://www.iucr.org
##########################################################################

data_Ba4Ti12O27
_symmetry_space_group_name_H-M          'P 1'
_cell_length_a                          10.0361854273
_cell_length_b                          11.5691951696
_cell_length_c                          11.5691951742
_cell_angle_alpha                       59.8551250544
_cell_angle_beta                        73.6366256444
_cell_angle_gamma                       73.636625642
_chemical_name_systematic               'Generated by pymatgen'
_symmetry_Int_Tables_number             1
_chemical_formula_structural            Ba4Ti12O27
_chemical_formula_sum                   'Ba8 Ti24 O54'
_cell_volume                            1098.54483568
_cell_formula_units_Z                   2
loop_
  _symmetry_equiv_pos_site_id
  _symmetry_equiv_pos_as_xyz
   1  'x, y, z'
 
loop_
  _atom_site_type_symbol
  _atom_site_label
  _atom_site_symmetry_multiplicity
  _atom_site_fract_x
  _atom_site_fract_y
  _atom_site_fract_z
  _atom_site_attached_hydrogens
  _atom_site_B_iso_or_equiv
  _atom_site_occupancy
   O  O1  1  0.306146  0.567152  0.567152  0  .  1
   O  O2  1  0.693854  0.432848  0.432848  0  .  1
   O  O3  1  0.888984  0.686288  0.686288  0  .  1
   O  O4  1  0.111016  0.313712  0.313712  0  .  1
   O  O5  1  0.385029  0.683720  0.683720  0  .  1
   O  O6  1  0.614971  0.316280  0.316280  0  .  1
   O  O7  1  0.656097  0.794635  0.794635  0  .  1
   O  O8  1  0.343903  0.205365  0.205365  0  .  1
   O  O9  1  0.199563  0.931255  0.931255  0  .  1
   O  O10  1  0.800437  0.068745  0.068745  0  .  1
   O  O11  1  0.948272  0.065004  0.814752  0  .  1
   O  O12  1  0.051728  0.185248  0.934996  0  .  1
   O  O13  1  0.051728  0.934996  0.185248  0  .  1
   O  O14  1  0.948272  0.814752  0.065004  0  .  1
   O  O15  1  0.698524  0.180465  0.687155  0  .  1
   O  O16  1  0.301476  0.312845  0.819535  0  .  1
   O  O17  1  0.301476  0.819535  0.312845  0  .  1
   O  O18  1  0.698524  0.687155  0.180465  0  .  1
   O  O19  1  0.943189  0.310351  0.566717  0  .  1
   O  O20  1  0.056811  0.433283  0.689649  0  .  1
   O  O21  1  0.056811  0.689649  0.433283  0  .  1
   O  O22  1  0.943189  0.566717  0.310351  0  .  1
   O  O23  1  0.858122  0.206808  0.449960  0  .  1
   O  O24  1  0.141878  0.550040  0.793192  0  .  1
   O  O25  1  0.141878  0.793192  0.550040  0  .  1
   O  O26  1  0.858122  0.449960  0.206808  0  .  1
   O  O27  1  0.876251  0.946805  0.677929  0  .  1
   O  O28  1  0.123749  0.322071  0.053195  0  .  1
   O  O29  1  0.123749  0.053195  0.322071  0  .  1
   O  O30  1  0.876251  0.677929  0.946805  0  .  1
   O  O31  1  0.639318  0.547652  0.055520  0  .  1
   O  O32  1  0.360682  0.944480  0.452348  0  .  1
   O  O33  1  0.559600  0.173747  0.936683  0  .  1
   O  O34  1  0.440400  0.063317  0.826253  0  .  1
   O  O35  1  0.440400  0.826253  0.063317  0  .  1
   O  O36  1  0.559600  0.936683  0.173747  0  .  1
   O  O37  1  0.530867  0.689356  0.428430  0  .  1
   O  O38  1  0.469133  0.571570  0.310644  0  .  1
   O  O39  1  0.469133  0.310644  0.571570  0  .  1
   O  O40  1  0.530867  0.428430  0.689356  0  .  1
   O  O41  1  0.886978  0.433286  0.923465  0  .  1
   O  O42  1  0.113022  0.076535  0.566714  0  .  1
   O  O43  1  0.113022  0.566714  0.076535  0  .  1
   O  O44  1  0.886978  0.923465  0.433286  0  .  1
   O  O45  1  0.595764  0.304830  0.076209  0  .  1
   O  O46  1  0.404236  0.923791  0.695170  0  .  1
   O  O47  1  0.404236  0.695170  0.923791  0  .  1
   O  O48  1  0.595764  0.076209  0.304830  0  .  1
   O  O49  1  0.630633  0.823392  0.559256  0  .  1
   O  O50  1  0.369367  0.440744  0.176608  0  .  1
   O  O51  1  0.369367  0.176608  0.440744  0  .  1
   O  O52  1  0.630633  0.559256  0.823392  0  .  1
   O  O53  1  0.639318  0.055520  0.547652  0  .  1
   O  O54  1  0.360682  0.452348  0.944480  0  .  1
   Ti  Ti55  1  0.000000  0.000000  0.000000  0  .  1
   Ti  Ti56  1  0.500000  0.500000  0.500000  0  .  1
   Ti  Ti57  1  0.500000  0.000000  0.500000  0  .  1
   Ti  Ti58  1  0.500000  0.500000  0.000000  0  .  1
   Ti  Ti59  1  0.500000  0.769763  0.230237  0  .  1
   Ti  Ti60  1  0.500000  0.230237  0.769763  0  .  1
   Ti  Ti61  1  0.078311  0.613324  0.613324  0  .  1
   Ti  Ti62  1  0.921689  0.386676  0.386676  0  .  1
   Ti  Ti63  1  0.516700  0.736471  0.736471  0  .  1
   Ti  Ti64  1  0.483300  0.263529  0.263529  0  .  1
   Ti  Ti65  1  0.389411  0.888887  0.888887  0  .  1
   Ti  Ti66  1  0.610589  0.111113  0.111113  0  .  1
   Ti  Ti67  1  0.922157  0.119620  0.636678  0  .  1
   Ti  Ti68  1  0.077843  0.363322  0.880380  0  .  1
   Ti  Ti69  1  0.077843  0.880380  0.363322  0  .  1
   Ti  Ti70  1  0.922157  0.636678  0.119620  0  .  1
   Ti  Ti71  1  0.658535  0.509070  0.229722  0  .  1
   Ti  Ti72  1  0.341465  0.770278  0.490930  0  .  1
   Ti  Ti73  1  0.341465  0.490930  0.770278  0  .  1
   Ti  Ti74  1  0.658535  0.229722  0.509070  0  .  1
   Ti  Ti75  1  0.785624  0.612604  0.879517  0  .  1
   Ti  Ti76  1  0.214376  0.120483  0.387396  0  .  1
   Ti  Ti77  1  0.214376  0.387396  0.120483  0  .  1
   Ti  Ti78  1  0.785624  0.879517  0.612604  0  .  1
   Ba  Ba79  1  0.126353  0.795399  0.795399  0  .  1
   Ba  Ba80  1  0.873647  0.204601  0.204601  0  .  1
   Ba  Ba81  1  0.711101  0.923763  0.923763  0  .  1
   Ba  Ba82  1  0.288899  0.076237  0.076237  0  .  1
   Ba  Ba83  1  0.784573  0.790185  0.339452  0  .  1
   Ba  Ba84  1  0.215427  0.660548  0.209815  0  .  1
   Ba  Ba85  1  0.215427  0.209815  0.660548  0  .  1
   Ba  Ba86  1  0.784573  0.339452  0.790185  0  .  1
 
