#\#CIF1.1
##########################################################################
#               Crystallographic Information Format file 
#               Produced by PyCifRW module
# 
#  This is a CIF file.  CIF has been adopted by the International
#  Union of Crystallography as the standard for data archiving and 
#  transmission.
#
#  For information on this file format, follow the CIF links at
#  http://www.iucr.org
##########################################################################

data_Ba4Ti3O10
_symmetry_space_group_name_H-M          'P 1'
_cell_length_a                          4.07880019558
_cell_length_b                          15.0155428491
_cell_length_c                          5.79153643551
_cell_angle_alpha                       101.165923984
_cell_angle_beta                        135.005703944
_cell_angle_gamma                       82.1362286279
_chemical_name_systematic               'Generated by pymatgen'
_symmetry_Int_Tables_number             1
_chemical_formula_structural            Ba4Ti3O10
_chemical_formula_sum                   'Ba4 Ti3 O10'
_cell_volume                            246.041992102
_cell_formula_units_Z                   1
loop_
  _symmetry_equiv_pos_site_id
  _symmetry_equiv_pos_as_xyz
   1  'x, y, z'
 
loop_
  _atom_site_type_symbol
  _atom_site_label
  _atom_site_symmetry_multiplicity
  _atom_site_fract_x
  _atom_site_fract_y
  _atom_site_fract_z
  _atom_site_attached_hydrogens
  _atom_site_B_iso_or_equiv
  _atom_site_occupancy
   Ba  Ba1  1  0.001433  0.865385  0.942597  0  .  1
   Ba  Ba2  1  0.003281  0.597781  0.807481  0  .  1
   Ba  Ba3  1  0.006033  0.136072  0.080713  0  .  1
   Ba  Ba4  1  0.010392  0.402946  0.214064  0  .  1
   Ti  Ti5  1  0.004192  0.000462  0.528364  0  .  1
   Ti  Ti6  1  0.017875  0.275468  0.666720  0  .  1
   Ti  Ti7  1  0.003571  0.725558  0.387082  0  .  1
   O  O8  1  0.003556  0.593203  0.292207  0  .  1
   O  O9  1  0.001074  0.136676  0.563861  0  .  1
   O  O10  1  0.491135  0.000469  0.984745  0  .  1
   O  O11  1  0.516411  0.000462  0.498188  0  .  1
   O  O12  1  0.488418  0.274232  0.124862  0  .  1
   O  O13  1  0.507122  0.274383  0.638394  0  .  1
   O  O14  1  0.491757  0.726704  0.849964  0  .  1
   O  O15  1  0.515264  0.726872  0.361973  0  .  1
   O  O16  1  0.998341  0.407701  0.701374  0  .  1
   O  O17  1  0.003928  0.864610  0.426963  0  .  1
 
