#\#CIF1.1
##########################################################################
#               Crystallographic Information Format file 
#               Produced by PyCifRW module
# 
#  This is a CIF file.  CIF has been adopted by the International
#  Union of Crystallography as the standard for data archiving and 
#  transmission.
#
#  For information on this file format, follow the CIF links at
#  http://www.iucr.org
##########################################################################

data_Ba4TiP4
_symmetry_space_group_name_H-M          'P 1'
_cell_length_a                          13.27730352
_cell_length_b                          13.27730352
_cell_length_c                          13.27730352
_cell_angle_alpha                       90.0
_cell_angle_beta                        90.0
_cell_angle_gamma                       90.0
_chemical_name_systematic               'Generated by pymatgen'
_symmetry_Int_Tables_number             1
_chemical_formula_structural            Ba4TiP4
_chemical_formula_sum                   'Ba32 Ti8 P32'
_cell_volume                            2340.61320096
_cell_formula_units_Z                   8
loop_
  _symmetry_equiv_pos_site_id
  _symmetry_equiv_pos_as_xyz
   1  'x, y, z'
 
loop_
  _atom_site_type_symbol
  _atom_site_label
  _atom_site_symmetry_multiplicity
  _atom_site_fract_x
  _atom_site_fract_y
  _atom_site_fract_z
  _atom_site_attached_hydrogens
  _atom_site_B_iso_or_equiv
  _atom_site_occupancy
   P  P1  1  0.895404  0.895404  0.895404  0  .  1
   P  P2  1  0.604596  0.395404  0.604596  0  .  1
   P  P3  1  0.395404  0.604596  0.604596  0  .  1
   P  P4  1  0.604596  0.604596  0.395404  0  .  1
   P  P5  1  0.895404  0.104596  0.104596  0  .  1
   P  P6  1  0.104596  0.104596  0.895404  0  .  1
   P  P7  1  0.104596  0.895404  0.104596  0  .  1
   P  P8  1  0.395404  0.395404  0.395404  0  .  1
   P  P9  1  0.649984  0.896343  0.610501  0  .  1
   P  P10  1  0.649984  0.103657  0.389499  0  .  1
   P  P11  1  0.896343  0.610501  0.649984  0  .  1
   P  P12  1  0.103657  0.610501  0.350016  0  .  1
   P  P13  1  0.610501  0.649984  0.896343  0  .  1
   P  P14  1  0.389499  0.350016  0.896343  0  .  1
   P  P15  1  0.850016  0.889499  0.396343  0  .  1
   P  P16  1  0.850016  0.110501  0.603657  0  .  1
   P  P17  1  0.149984  0.889499  0.603657  0  .  1
   P  P18  1  0.110501  0.603657  0.850016  0  .  1
   P  P19  1  0.603657  0.149984  0.889499  0  .  1
   P  P20  1  0.603657  0.850016  0.110501  0  .  1
   P  P21  1  0.889499  0.396343  0.850016  0  .  1
   P  P22  1  0.396343  0.850016  0.889499  0  .  1
   P  P23  1  0.889499  0.603657  0.149984  0  .  1
   P  P24  1  0.110501  0.396343  0.149984  0  .  1
   P  P25  1  0.396343  0.149984  0.110501  0  .  1
   P  P26  1  0.389499  0.649984  0.103657  0  .  1
   P  P27  1  0.610501  0.350016  0.103657  0  .  1
   P  P28  1  0.896343  0.389499  0.350016  0  .  1
   P  P29  1  0.103657  0.389499  0.649984  0  .  1
   P  P30  1  0.350016  0.103657  0.610501  0  .  1
   P  P31  1  0.350016  0.896343  0.389499  0  .  1
   P  P32  1  0.149984  0.110501  0.396343  0  .  1
   Ti  Ti33  1  0.500000  0.500000  0.500000  0  .  1
   Ti  Ti34  1  0.000000  0.000000  0.000000  0  .  1
   Ti  Ti35  1  0.750000  0.000000  0.500000  0  .  1
   Ti  Ti36  1  0.500000  0.750000  0.000000  0  .  1
   Ti  Ti37  1  0.500000  0.250000  0.000000  0  .  1
   Ti  Ti38  1  0.000000  0.500000  0.250000  0  .  1
   Ti  Ti39  1  0.000000  0.500000  0.750000  0  .  1
   Ti  Ti40  1  0.250000  0.000000  0.500000  0  .  1
   Ba  Ba41  1  0.149280  0.149280  0.149280  0  .  1
   Ba  Ba42  1  0.350720  0.649280  0.350720  0  .  1
   Ba  Ba43  1  0.649280  0.350720  0.350720  0  .  1
   Ba  Ba44  1  0.350720  0.350720  0.649280  0  .  1
   Ba  Ba45  1  0.149280  0.850720  0.850720  0  .  1
   Ba  Ba46  1  0.850720  0.850720  0.149280  0  .  1
   Ba  Ba47  1  0.850720  0.149280  0.850720  0  .  1
   Ba  Ba48  1  0.649280  0.649280  0.649280  0  .  1
   Ba  Ba49  1  0.908783  0.863516  0.649090  0  .  1
   Ba  Ba50  1  0.908783  0.136484  0.350910  0  .  1
   Ba  Ba51  1  0.863516  0.649090  0.908783  0  .  1
   Ba  Ba52  1  0.136484  0.649090  0.091217  0  .  1
   Ba  Ba53  1  0.649090  0.908783  0.863516  0  .  1
   Ba  Ba54  1  0.350910  0.091217  0.863516  0  .  1
   Ba  Ba55  1  0.591217  0.850910  0.363516  0  .  1
   Ba  Ba56  1  0.591217  0.149090  0.636484  0  .  1
   Ba  Ba57  1  0.408783  0.850910  0.636484  0  .  1
   Ba  Ba58  1  0.149090  0.636484  0.591217  0  .  1
   Ba  Ba59  1  0.636484  0.408783  0.850910  0  .  1
   Ba  Ba60  1  0.636484  0.591217  0.149090  0  .  1
   Ba  Ba61  1  0.850910  0.363516  0.591217  0  .  1
   Ba  Ba62  1  0.363516  0.591217  0.850910  0  .  1
   Ba  Ba63  1  0.850910  0.636484  0.408783  0  .  1
   Ba  Ba64  1  0.149090  0.363516  0.408783  0  .  1
   Ba  Ba65  1  0.363516  0.408783  0.149090  0  .  1
   Ba  Ba66  1  0.350910  0.908783  0.136484  0  .  1
   Ba  Ba67  1  0.649090  0.091217  0.136484  0  .  1
   Ba  Ba68  1  0.863516  0.350910  0.091217  0  .  1
   Ba  Ba69  1  0.136484  0.350910  0.908783  0  .  1
   Ba  Ba70  1  0.091217  0.136484  0.649090  0  .  1
   Ba  Ba71  1  0.091217  0.863516  0.350910  0  .  1
   Ba  Ba72  1  0.408783  0.149090  0.363516  0  .  1
 
