#\#CIF1.1
##########################################################################
#               Crystallographic Information Format file 
#               Produced by PyCifRW module
# 
#  This is a CIF file.  CIF has been adopted by the International
#  Union of Crystallography as the standard for data archiving and 
#  transmission.
#
#  For information on this file format, follow the CIF links at
#  http://www.iucr.org
##########################################################################

data_Ba5(FeS2)9
_symmetry_space_group_name_H-M          'P 1'
_cell_length_a                          7.87195042
_cell_length_b                          7.87195042
_cell_length_c                          48.31585921
_cell_angle_alpha                       90.0
_cell_angle_beta                        90.0
_cell_angle_gamma                       90.0
_chemical_name_systematic               'Generated by pymatgen'
_symmetry_Int_Tables_number             1
_chemical_formula_structural            Ba5(FeS2)9
_chemical_formula_sum                   'Ba20 Fe36 S72'
_cell_volume                            2994.01800218
_cell_formula_units_Z                   4
loop_
  _symmetry_equiv_pos_site_id
  _symmetry_equiv_pos_as_xyz
   1  'x, y, z'
 
loop_
  _atom_site_type_symbol
  _atom_site_label
  _atom_site_symmetry_multiplicity
  _atom_site_fract_x
  _atom_site_fract_y
  _atom_site_fract_z
  _atom_site_attached_hydrogens
  _atom_site_B_iso_or_equiv
  _atom_site_occupancy
   Ba  Ba1  1  0.750000  0.750000  0.773658  0  .  1
   Ba  Ba2  1  0.750000  0.750000  0.873496  0  .  1
   Ba  Ba3  1  0.250000  0.250000  0.126504  0  .  1
   Ba  Ba4  1  0.750000  0.750000  0.467672  0  .  1
   Ba  Ba5  1  0.250000  0.250000  0.431255  0  .  1
   Ba  Ba6  1  0.750000  0.750000  0.273658  0  .  1
   Ba  Ba7  1  0.250000  0.250000  0.626504  0  .  1
   Ba  Ba8  1  0.750000  0.750000  0.373496  0  .  1
   Ba  Ba9  1  0.250000  0.250000  0.032328  0  .  1
   Ba  Ba10  1  0.250000  0.250000  0.726342  0  .  1
   Ba  Ba11  1  0.250000  0.250000  0.532328  0  .  1
   Ba  Ba12  1  0.250000  0.250000  0.226342  0  .  1
   Ba  Ba13  1  0.750000  0.750000  0.672063  0  .  1
   Ba  Ba14  1  0.250000  0.250000  0.931255  0  .  1
   Ba  Ba15  1  0.750000  0.750000  0.068745  0  .  1
   Ba  Ba16  1  0.250000  0.250000  0.327937  0  .  1
   Ba  Ba17  1  0.750000  0.750000  0.172063  0  .  1
   Ba  Ba18  1  0.750000  0.750000  0.967672  0  .  1
   Ba  Ba19  1  0.750000  0.750000  0.568745  0  .  1
   Ba  Ba20  1  0.250000  0.250000  0.827937  0  .  1
   Fe  Fe21  1  0.250000  0.750000  0.391325  0  .  1
   Fe  Fe22  1  0.250000  0.750000  0.445304  0  .  1
   Fe  Fe23  1  0.750000  0.250000  0.554696  0  .  1
   Fe  Fe24  1  0.750000  0.250000  0.780118  0  .  1
   Fe  Fe25  1  0.750000  0.250000  0.108675  0  .  1
   Fe  Fe26  1  0.750000  0.250000  0.608675  0  .  1
   Fe  Fe27  1  0.250000  0.750000  0.336325  0  .  1
   Fe  Fe28  1  0.750000  0.250000  0.219882  0  .  1
   Fe  Fe29  1  0.750000  0.250000  0.445304  0  .  1
   Fe  Fe30  1  0.250000  0.750000  0.554696  0  .  1
   Fe  Fe31  1  0.750000  0.250000  0.891325  0  .  1
   Fe  Fe32  1  0.250000  0.750000  0.891325  0  .  1
   Fe  Fe33  1  0.250000  0.750000  0.945304  0  .  1
   Fe  Fe34  1  0.750000  0.250000  0.163675  0  .  1
   Fe  Fe35  1  0.250000  0.750000  0.836325  0  .  1
   Fe  Fe36  1  0.250000  0.750000  0.500000  0  .  1
   Fe  Fe37  1  0.750000  0.250000  0.391325  0  .  1
   Fe  Fe38  1  0.250000  0.750000  0.108675  0  .  1
   Fe  Fe39  1  0.750000  0.250000  0.663675  0  .  1
   Fe  Fe40  1  0.250000  0.750000  0.608675  0  .  1
   Fe  Fe41  1  0.750000  0.250000  0.945304  0  .  1
   Fe  Fe42  1  0.250000  0.750000  0.163675  0  .  1
   Fe  Fe43  1  0.750000  0.250000  0.280118  0  .  1
   Fe  Fe44  1  0.750000  0.250000  0.719882  0  .  1
   Fe  Fe45  1  0.750000  0.250000  0.336325  0  .  1
   Fe  Fe46  1  0.750000  0.250000  0.500000  0  .  1
   Fe  Fe47  1  0.250000  0.750000  0.280118  0  .  1
   Fe  Fe48  1  0.250000  0.750000  0.000000  0  .  1
   Fe  Fe49  1  0.750000  0.250000  0.054696  0  .  1
   Fe  Fe50  1  0.250000  0.750000  0.663675  0  .  1
   Fe  Fe51  1  0.250000  0.750000  0.054696  0  .  1
   Fe  Fe52  1  0.250000  0.750000  0.780118  0  .  1
   Fe  Fe53  1  0.250000  0.750000  0.719882  0  .  1
   Fe  Fe54  1  0.250000  0.750000  0.219882  0  .  1
   Fe  Fe55  1  0.750000  0.250000  0.000000  0  .  1
   Fe  Fe56  1  0.750000  0.250000  0.836325  0  .  1
   S  S57  1  0.437487  0.865594  0.917898  0  .  1
   S  S58  1  0.596743  0.403257  0.250000  0  .  1
   S  S59  1  0.607550  0.079534  0.308086  0  .  1
   S  S60  1  0.865594  0.062513  0.917898  0  .  1
   S  S61  1  0.579534  0.107550  0.191914  0  .  1
   S  S62  1  0.562513  0.134406  0.082102  0  .  1
   S  S63  1  0.622722  0.072555  0.635561  0  .  1
   S  S64  1  0.563311  0.377158  0.472751  0  .  1
   S  S65  1  0.877158  0.436689  0.527249  0  .  1
   S  S66  1  0.122722  0.572555  0.364439  0  .  1
   S  S67  1  0.436689  0.877158  0.027249  0  .  1
   S  S68  1  0.377278  0.572555  0.864439  0  .  1
   S  S69  1  0.877278  0.072555  0.135561  0  .  1
   S  S70  1  0.622722  0.427445  0.135561  0  .  1
   S  S71  1  0.096743  0.596743  0.250000  0  .  1
   S  S72  1  0.920466  0.107550  0.691914  0  .  1
   S  S73  1  0.377278  0.927445  0.364439  0  .  1
   S  S74  1  0.392450  0.579534  0.191914  0  .  1
   S  S75  1  0.572555  0.122722  0.864439  0  .  1
   S  S76  1  0.634406  0.062513  0.417898  0  .  1
   S  S77  1  0.122842  0.563311  0.472751  0  .  1
   S  S78  1  0.063311  0.877158  0.527249  0  .  1
   S  S79  1  0.607550  0.420466  0.808086  0  .  1
   S  S80  1  0.392450  0.920466  0.691914  0  .  1
   S  S81  1  0.634406  0.437487  0.917898  0  .  1
   S  S82  1  0.134406  0.937487  0.082102  0  .  1
   S  S83  1  0.079534  0.607550  0.808086  0  .  1
   S  S84  1  0.562513  0.365594  0.582102  0  .  1
   S  S85  1  0.062513  0.865594  0.417898  0  .  1
   S  S86  1  0.596743  0.096743  0.750000  0  .  1
   S  S87  1  0.365594  0.937487  0.582102  0  .  1
   S  S88  1  0.122722  0.927445  0.864439  0  .  1
   S  S89  1  0.079534  0.892450  0.308086  0  .  1
   S  S90  1  0.420466  0.607550  0.308086  0  .  1
   S  S91  1  0.096743  0.903257  0.750000  0  .  1
   S  S92  1  0.920466  0.392450  0.191914  0  .  1
   S  S93  1  0.927445  0.377278  0.864439  0  .  1
   S  S94  1  0.072555  0.877278  0.635561  0  .  1
   S  S95  1  0.937487  0.134406  0.582102  0  .  1
   S  S96  1  0.572555  0.377278  0.364439  0  .  1
   S  S97  1  0.563311  0.122842  0.972751  0  .  1
   S  S98  1  0.134406  0.562513  0.582102  0  .  1
   S  S99  1  0.579534  0.392450  0.691914  0  .  1
   S  S100  1  0.877158  0.063311  0.027249  0  .  1
   S  S101  1  0.937487  0.365594  0.082102  0  .  1
   S  S102  1  0.427445  0.622722  0.635561  0  .  1
   S  S103  1  0.403257  0.903257  0.250000  0  .  1
   S  S104  1  0.892450  0.079534  0.808086  0  .  1
   S  S105  1  0.427445  0.877278  0.135561  0  .  1
   S  S106  1  0.122842  0.936689  0.972751  0  .  1
   S  S107  1  0.865594  0.437487  0.417898  0  .  1
   S  S108  1  0.377158  0.936689  0.472751  0  .  1
   S  S109  1  0.892450  0.420466  0.308086  0  .  1
   S  S110  1  0.377158  0.563311  0.972751  0  .  1
   S  S111  1  0.903257  0.096743  0.250000  0  .  1
   S  S112  1  0.927445  0.122722  0.364439  0  .  1
   S  S113  1  0.062513  0.634406  0.917898  0  .  1
   S  S114  1  0.436689  0.622842  0.527249  0  .  1
   S  S115  1  0.936689  0.122842  0.472751  0  .  1
   S  S116  1  0.622842  0.063311  0.527249  0  .  1
   S  S117  1  0.622842  0.436689  0.027249  0  .  1
   S  S118  1  0.365594  0.562513  0.082102  0  .  1
   S  S119  1  0.420466  0.892450  0.808086  0  .  1
   S  S120  1  0.936689  0.377158  0.972751  0  .  1
   S  S121  1  0.072555  0.622722  0.135561  0  .  1
   S  S122  1  0.903257  0.403257  0.750000  0  .  1
   S  S123  1  0.403257  0.596743  0.750000  0  .  1
   S  S124  1  0.063311  0.622842  0.027249  0  .  1
   S  S125  1  0.437487  0.634406  0.417898  0  .  1
   S  S126  1  0.877278  0.427445  0.635561  0  .  1
   S  S127  1  0.107550  0.920466  0.191914  0  .  1
   S  S128  1  0.107550  0.579534  0.691914  0  .  1
 
