#\#CIF1.1
##########################################################################
#               Crystallographic Information Format file 
#               Produced by PyCifRW module
# 
#  This is a CIF file.  CIF has been adopted by the International
#  Union of Crystallography as the standard for data archiving and 
#  transmission.
#
#  For information on this file format, follow the CIF links at
#  http://www.iucr.org
##########################################################################

data_Ba5Fe5O14
_symmetry_space_group_name_H-M          'P 1'
_cell_length_a                          5.89832428659
_cell_length_b                          5.8983239532
_cell_length_c                          24.71525769
_cell_angle_alpha                       90.0
_cell_angle_beta                        90.0
_cell_angle_gamma                       120.303461715
_chemical_name_systematic               'Generated by pymatgen'
_symmetry_Int_Tables_number             1
_chemical_formula_structural            Ba5Fe5O14
_chemical_formula_sum                   'Ba10 Fe10 O28'
_cell_volume                            742.363965217
_cell_formula_units_Z                   2
loop_
  _symmetry_equiv_pos_site_id
  _symmetry_equiv_pos_as_xyz
   1  'x, y, z'
 
loop_
  _atom_site_type_symbol
  _atom_site_label
  _atom_site_symmetry_multiplicity
  _atom_site_fract_x
  _atom_site_fract_y
  _atom_site_fract_z
  _atom_site_attached_hydrogens
  _atom_site_B_iso_or_equiv
  _atom_site_occupancy
   Ba  Ba1  1  0.332944  0.667056  0.961098  0  .  1
   Ba  Ba2  1  0.667056  0.332944  0.461099  0  .  1
   Ba  Ba3  1  0.667056  0.332944  0.038901  0  .  1
   Ba  Ba4  1  0.332944  0.667056  0.538902  0  .  1
   Ba  Ba5  1  0.965599  0.034401  0.750000  0  .  1
   Ba  Ba6  1  0.034401  0.965599  0.250000  0  .  1
   Ba  Ba7  1  0.654947  0.345053  0.860931  0  .  1
   Ba  Ba8  1  0.345053  0.654947  0.360931  0  .  1
   Ba  Ba9  1  0.345053  0.654947  0.139069  0  .  1
   Ba  Ba10  1  0.654947  0.345053  0.639069  0  .  1
   Fe  Fe11  1  0.989397  0.010603  0.893156  0  .  1
   Fe  Fe12  1  0.010603  0.989397  0.393156  0  .  1
   Fe  Fe13  1  0.010603  0.989397  0.106844  0  .  1
   Fe  Fe14  1  0.989397  0.010603  0.606844  0  .  1
   Fe  Fe15  1  0.000000  0.000000  0.000000  0  .  1
   Fe  Fe16  1  0.000000  0.000000  0.500000  0  .  1
   Fe  Fe17  1  0.318461  0.681539  0.821637  0  .  1
   Fe  Fe18  1  0.681539  0.318461  0.321637  0  .  1
   Fe  Fe19  1  0.681539  0.318461  0.178363  0  .  1
   Fe  Fe20  1  0.318461  0.681539  0.678363  0  .  1
   O  O21  1  0.376892  0.623108  0.750000  0  .  1
   O  O22  1  0.623108  0.376892  0.250000  0  .  1
   O  O23  1  0.706216  0.293784  0.750000  0  .  1
   O  O24  1  0.293784  0.706216  0.250000  0  .  1
   O  O25  1  0.848414  0.151586  0.955934  0  .  1
   O  O26  1  0.151586  0.848414  0.455934  0  .  1
   O  O27  1  0.151586  0.848414  0.044066  0  .  1
   O  O28  1  0.848414  0.151586  0.544066  0  .  1
   O  O29  1  0.848546  0.707698  0.950954  0  .  1
   O  O30  1  0.151454  0.292302  0.450954  0  .  1
   O  O31  1  0.707698  0.848546  0.049046  0  .  1
   O  O32  1  0.292302  0.151454  0.549046  0  .  1
   O  O33  1  0.151454  0.292302  0.049046  0  .  1
   O  O34  1  0.848546  0.707698  0.549046  0  .  1
   O  O35  1  0.292302  0.151454  0.950954  0  .  1
   O  O36  1  0.707698  0.848546  0.450954  0  .  1
   O  O37  1  0.650827  0.857476  0.854882  0  .  1
   O  O38  1  0.349173  0.142524  0.354882  0  .  1
   O  O39  1  0.857476  0.650827  0.145118  0  .  1
   O  O40  1  0.142524  0.349173  0.645118  0  .  1
   O  O41  1  0.349173  0.142524  0.145118  0  .  1
   O  O42  1  0.650827  0.857476  0.645118  0  .  1
   O  O43  1  0.142524  0.349173  0.854882  0  .  1
   O  O44  1  0.857476  0.650827  0.354882  0  .  1
   O  O45  1  0.139457  0.860543  0.840563  0  .  1
   O  O46  1  0.860543  0.139457  0.340563  0  .  1
   O  O47  1  0.860543  0.139457  0.159437  0  .  1
   O  O48  1  0.139457  0.860543  0.659437  0  .  1
 
