#\#CIF1.1
##########################################################################
#               Crystallographic Information Format file 
#               Produced by PyCifRW module
# 
#  This is a CIF file.  CIF has been adopted by the International
#  Union of Crystallography as the standard for data archiving and 
#  transmission.
#
#  For information on this file format, follow the CIF links at
#  http://www.iucr.org
##########################################################################

data_Ba5Fe4S11
_symmetry_space_group_name_H-M          'P 1'
_cell_length_a                          7.30486293
_cell_length_b                          8.79706212
_cell_length_c                          15.96531003
_cell_angle_alpha                       90.0
_cell_angle_beta                        90.0
_cell_angle_gamma                       90.0
_chemical_name_systematic               'Generated by pymatgen'
_symmetry_Int_Tables_number             1
_chemical_formula_structural            Ba5Fe4S11
_chemical_formula_sum                   'Ba10 Fe8 S22'
_cell_volume                            1025.95210386
_cell_formula_units_Z                   2
loop_
  _symmetry_equiv_pos_site_id
  _symmetry_equiv_pos_as_xyz
   1  'x, y, z'
 
loop_
  _atom_site_type_symbol
  _atom_site_label
  _atom_site_symmetry_multiplicity
  _atom_site_fract_x
  _atom_site_fract_y
  _atom_site_fract_z
  _atom_site_attached_hydrogens
  _atom_site_B_iso_or_equiv
  _atom_site_occupancy
   Ba  Ba1  1  0.025389  0.251523  0.500000  0  .  1
   Ba  Ba2  1  0.021490  0.370246  0.803194  0  .  1
   Ba  Ba3  1  0.978510  0.870246  0.696806  0  .  1
   Ba  Ba4  1  0.021490  0.370246  0.196806  0  .  1
   Ba  Ba5  1  0.531157  0.490441  0.672627  0  .  1
   Ba  Ba6  1  0.974611  0.751523  0.000000  0  .  1
   Ba  Ba7  1  0.531157  0.490441  0.327373  0  .  1
   Ba  Ba8  1  0.978510  0.870246  0.303194  0  .  1
   Ba  Ba9  1  0.468843  0.990441  0.172627  0  .  1
   Ba  Ba10  1  0.468843  0.990441  0.827373  0  .  1
   Fe  Fe11  1  0.054163  0.637245  0.500000  0  .  1
   Fe  Fe12  1  0.945837  0.137245  0.000000  0  .  1
   Fe  Fe13  1  0.482126  0.596187  0.112029  0  .  1
   Fe  Fe14  1  0.517874  0.096187  0.387971  0  .  1
   Fe  Fe15  1  0.517874  0.096187  0.612029  0  .  1
   Fe  Fe16  1  0.622941  0.303180  0.000000  0  .  1
   Fe  Fe17  1  0.377059  0.803180  0.500000  0  .  1
   Fe  Fe18  1  0.482126  0.596187  0.887971  0  .  1
   S  S19  1  0.743412  0.166819  0.696498  0  .  1
   S  S20  1  0.058914  0.041538  0.118392  0  .  1
   S  S21  1  0.582243  0.239663  0.500000  0  .  1
   S  S22  1  0.743412  0.166819  0.303502  0  .  1
   S  S23  1  0.742175  0.676716  0.170836  0  .  1
   S  S24  1  0.256588  0.666819  0.803502  0  .  1
   S  S25  1  0.089765  0.891625  0.500000  0  .  1
   S  S26  1  0.468485  0.341465  0.118222  0  .  1
   S  S27  1  0.654870  0.056841  0.000000  0  .  1
   S  S28  1  0.531515  0.841465  0.618222  0  .  1
   S  S29  1  0.941086  0.541538  0.381608  0  .  1
   S  S30  1  0.257825  0.176716  0.329164  0  .  1
   S  S31  1  0.257825  0.176716  0.670836  0  .  1
   S  S32  1  0.345130  0.556841  0.500000  0  .  1
   S  S33  1  0.910235  0.391625  0.000000  0  .  1
   S  S34  1  0.256588  0.666819  0.196498  0  .  1
   S  S35  1  0.742175  0.676716  0.829164  0  .  1
   S  S36  1  0.941086  0.541538  0.618392  0  .  1
   S  S37  1  0.058914  0.041538  0.881608  0  .  1
   S  S38  1  0.531515  0.841465  0.381778  0  .  1
   S  S39  1  0.417757  0.739663  0.000000  0  .  1
   S  S40  1  0.468485  0.341465  0.881778  0  .  1
 
