#\#CIF1.1
##########################################################################
#               Crystallographic Information Format file 
#               Produced by PyCifRW module
# 
#  This is a CIF file.  CIF has been adopted by the International
#  Union of Crystallography as the standard for data archiving and 
#  transmission.
#
#  For information on this file format, follow the CIF links at
#  http://www.iucr.org
##########################################################################

data_Ba5V5O14
_symmetry_space_group_name_H-M          'P 1'
_cell_length_a                          5.85169376556
_cell_length_b                          5.77821422284
_cell_length_c                          23.7549909434
_cell_angle_alpha                       89.5400106647
_cell_angle_beta                        89.5568068105
_cell_angle_gamma                       120.217678199
_chemical_name_systematic               'Generated by pymatgen'
_symmetry_Int_Tables_number             1
_chemical_formula_structural            Ba5V5O14
_chemical_formula_sum                   'Ba10 V10 O28'
_cell_volume                            693.984236229
_cell_formula_units_Z                   2
loop_
  _symmetry_equiv_pos_site_id
  _symmetry_equiv_pos_as_xyz
   1  'x, y, z'
 
loop_
  _atom_site_type_symbol
  _atom_site_label
  _atom_site_symmetry_multiplicity
  _atom_site_fract_x
  _atom_site_fract_y
  _atom_site_fract_z
  _atom_site_attached_hydrogens
  _atom_site_B_iso_or_equiv
  _atom_site_occupancy
   Ba  Ba1  1  0.336534  0.667922  0.206042  0  .  1
   Ba  Ba2  1  0.328084  0.665365  0.388533  0  .  1
   Ba  Ba3  1  0.328113  0.663436  0.705446  0  .  1
   Ba  Ba4  1  0.332744  0.663851  0.889149  0  .  1
   Ba  Ba5  1  0.002516  0.000028  0.000012  0  .  1
   Ba  Ba6  1  0.995914  0.998845  0.500874  0  .  1
   Ba  Ba7  1  0.665911  0.333278  0.109079  0  .  1
   Ba  Ba8  1  0.665305  0.331604  0.609509  0  .  1
   Ba  Ba9  1  0.668143  0.331522  0.793204  0  .  1
   Ba  Ba10  1  0.663368  0.332215  0.293096  0  .  1
   V  V11  1  0.314072  0.681557  0.053366  0  .  1
   V  V12  1  0.368963  0.684042  0.553153  0  .  1
   V  V13  1  0.997330  0.004182  0.140158  0  .  1
   V  V14  1  0.020353  0.002033  0.859980  0  .  1
   V  V15  1  0.996864  0.997126  0.251304  0  .  1
   V  V16  1  0.978414  0.986461  0.360747  0  .  1
   V  V17  1  0.998831  0.996279  0.640849  0  .  1
   V  V18  1  0.993679  0.995696  0.751145  0  .  1
   V  V19  1  0.615840  0.307903  0.445403  0  .  1
   V  V20  1  0.687143  0.313270  0.946564  0  .  1
   O  O21  1  0.008914  0.506417  0.998980  0  .  1
   O  O22  1  0.153757  0.845480  0.099740  0  .  1
   O  O23  1  0.165962  0.825322  0.594079  0  .  1
   O  O24  1  0.140894  0.844836  0.304082  0  .  1
   O  O25  1  0.158925  0.846157  0.803111  0  .  1
   O  O26  1  0.132631  0.294554  0.300283  0  .  1
   O  O27  1  0.162618  0.304579  0.801623  0  .  1
   O  O28  1  0.178947  0.340079  0.092350  0  .  1
   O  O29  1  0.163304  0.339432  0.593272  0  .  1
   O  O30  1  0.707201  0.842528  0.800768  0  .  1
   O  O31  1  0.681312  0.838992  0.302110  0  .  1
   O  O32  1  0.691031  0.846838  0.599533  0  .  1
   O  O33  1  0.660431  0.827089  0.093683  0  .  1
   O  O34  1  0.513893  0.500907  0.500200  0  .  1
   O  O35  1  0.339479  0.172699  0.401613  0  .  1
   O  O36  1  0.344239  0.177062  0.906594  0  .  1
   O  O37  1  0.295909  0.151616  0.197562  0  .  1
   O  O38  1  0.293421  0.146303  0.694786  0  .  1
   O  O39  1  0.845827  0.660180  0.409285  0  .  1
   O  O40  1  0.803530  0.648123  0.911735  0  .  1
   O  O41  1  0.846603  0.701134  0.199446  0  .  1
   O  O42  1  0.852204  0.694624  0.697135  0  .  1
   O  O43  1  0.508327  0.030864  0.000602  0  .  1
   O  O44  1  0.515621  0.013467  0.500231  0  .  1
   O  O45  1  0.853723  0.152926  0.192410  0  .  1
   O  O46  1  0.854836  0.153598  0.697730  0  .  1
   O  O47  1  0.842236  0.183547  0.407718  0  .  1
   O  O48  1  0.828701  0.157234  0.901724  0  .  1
 
