#\#CIF1.1
##########################################################################
#               Crystallographic Information Format file 
#               Produced by PyCifRW module
# 
#  This is a CIF file.  CIF has been adopted by the International
#  Union of Crystallography as the standard for data archiving and 
#  transmission.
#
#  For information on this file format, follow the CIF links at
#  http://www.iucr.org
##########################################################################

data_Ba6(NiO3)5
_symmetry_space_group_name_H-M          'P 1'
_cell_length_a                          7.20944849117
_cell_length_b                          7.20944861891
_cell_length_c                          7.20944951189
_cell_angle_alpha                       88.2434097654
_cell_angle_beta                        88.2434097651
_cell_angle_gamma                       88.2434123199
_chemical_name_systematic               'Generated by pymatgen'
_symmetry_Int_Tables_number             1
_chemical_formula_structural            Ba6(NiO3)5
_chemical_formula_sum                   'Ba6 Ni5 O15'
_cell_volume                            374.20170443
_cell_formula_units_Z                   1
loop_
  _symmetry_equiv_pos_site_id
  _symmetry_equiv_pos_as_xyz
   1  'x, y, z'
 
loop_
  _atom_site_type_symbol
  _atom_site_label
  _atom_site_symmetry_multiplicity
  _atom_site_fract_x
  _atom_site_fract_y
  _atom_site_fract_z
  _atom_site_attached_hydrogens
  _atom_site_B_iso_or_equiv
  _atom_site_occupancy
   Ba  Ba1  1  0.336491  0.663509  0.000000  0  .  1
   Ba  Ba2  1  0.000000  0.336491  0.663509  0  .  1
   Ba  Ba3  1  0.663509  1.000000  0.336491  0  .  1
   Ba  Ba4  1  0.148885  0.851115  0.500000  0  .  1
   Ba  Ba5  1  0.500000  0.148885  0.851115  0  .  1
   Ba  Ba6  1  0.851115  0.500000  0.148885  0  .  1
   Ni  Ni7  1  0.094998  0.094998  0.094998  0  .  1
   Ni  Ni8  1  0.905002  0.905002  0.905002  0  .  1
   Ni  Ni9  1  0.289859  0.289859  0.289859  0  .  1
   Ni  Ni10  1  0.710141  0.710141  0.710141  0  .  1
   Ni  Ni11  1  0.500000  0.500000  0.500000  0  .  1
   O  O12  1  0.036835  0.192662  0.329109  0  .  1
   O  O13  1  0.329109  0.036835  0.192662  0  .  1
   O  O14  1  0.192662  0.329109  0.036835  0  .  1
   O  O15  1  0.807338  0.963165  0.670891  0  .  1
   O  O16  1  0.670891  0.807338  0.963165  0  .  1
   O  O17  1  0.963165  0.670891  0.807338  0  .  1
   O  O18  1  0.143487  1.000000  0.856513  0  .  1
   O  O19  1  0.856513  0.143487  0.000000  0  .  1
   O  O20  1  0.000000  0.856513  0.143487  0  .  1
   O  O21  1  0.365918  0.233620  0.528444  0  .  1
   O  O22  1  0.528444  0.365918  0.233620  0  .  1
   O  O23  1  0.233620  0.528444  0.365918  0  .  1
   O  O24  1  0.766380  0.634082  0.471556  0  .  1
   O  O25  1  0.471556  0.766380  0.634082  0  .  1
   O  O26  1  0.634082  0.471556  0.766380  0  .  1
 
