#\#CIF1.1
##########################################################################
#               Crystallographic Information Format file 
#               Produced by PyCifRW module
# 
#  This is a CIF file.  CIF has been adopted by the International
#  Union of Crystallography as the standard for data archiving and 
#  transmission.
#
#  For information on this file format, follow the CIF links at
#  http://www.iucr.org
##########################################################################

data_Ba6Mn5O16
_symmetry_space_group_name_H-M          'P 1'
_cell_length_a                          5.80201089
_cell_length_b                          7.25571662899
_cell_length_c                          20.60863449
_cell_angle_alpha                       90.0
_cell_angle_beta                        90.0
_cell_angle_gamma                       113.567140186
_chemical_name_systematic               'Generated by pymatgen'
_symmetry_Int_Tables_number             1
_chemical_formula_structural            Ba6Mn5O16
_chemical_formula_sum                   'Ba12 Mn10 O32'
_cell_volume                            795.214369121
_cell_formula_units_Z                   2
loop_
  _symmetry_equiv_pos_site_id
  _symmetry_equiv_pos_as_xyz
   1  'x, y, z'
 
loop_
  _atom_site_type_symbol
  _atom_site_label
  _atom_site_symmetry_multiplicity
  _atom_site_fract_x
  _atom_site_fract_y
  _atom_site_fract_z
  _atom_site_attached_hydrogens
  _atom_site_B_iso_or_equiv
  _atom_site_occupancy
   O  O1  1  0.943580  0.454310  0.383901  0  .  1
   O  O2  1  0.489271  0.545690  0.616098  0  .  1
   O  O3  1  0.556420  0.545690  0.883901  0  .  1
   O  O4  1  0.010729  0.454310  0.116099  0  .  1
   O  O5  1  0.056420  0.545690  0.616098  0  .  1
   O  O6  1  0.510729  0.454310  0.383901  0  .  1
   O  O7  1  0.443580  0.454310  0.116099  0  .  1
   O  O8  1  0.989270  0.545690  0.883901  0  .  1
   O  O9  1  0.795584  0.037482  0.068859  0  .  1
   O  O10  1  0.758102  0.962518  0.931141  0  .  1
   O  O11  1  0.704415  0.962518  0.568860  0  .  1
   O  O12  1  0.741897  0.037482  0.431141  0  .  1
   O  O13  1  0.204416  0.962518  0.931141  0  .  1
   O  O14  1  0.241897  0.037482  0.068859  0  .  1
   O  O15  1  0.295584  0.037482  0.431141  0  .  1
   O  O16  1  0.258103  0.962518  0.568860  0  .  1
   O  O17  1  0.853306  0.706611  0.000403  0  .  1
   O  O18  1  0.146694  0.293389  0.999598  0  .  1
   O  O19  1  0.646694  0.293389  0.500402  0  .  1
   O  O20  1  0.353306  0.706611  0.499597  0  .  1
   O  O21  1  0.910430  0.820861  0.816327  0  .  1
   O  O22  1  0.089570  0.179139  0.183673  0  .  1
   O  O23  1  0.011729  0.523459  0.750000  0  .  1
   O  O24  1  0.488271  0.476541  0.250000  0  .  1
   O  O25  1  0.988270  0.476541  0.250000  0  .  1
   O  O26  1  0.511729  0.523459  0.750000  0  .  1
   O  O27  1  0.112341  0.224681  0.686342  0  .  1
   O  O28  1  0.589569  0.179139  0.316326  0  .  1
   O  O29  1  0.387659  0.775319  0.186342  0  .  1
   O  O30  1  0.612340  0.224681  0.813658  0  .  1
   O  O31  1  0.410430  0.820861  0.683673  0  .  1
   O  O32  1  0.887659  0.775319  0.313658  0  .  1
   Mn  Mn33  1  0.877152  0.754306  0.906381  0  .  1
   Mn  Mn34  1  0.122847  0.245694  0.093618  0  .  1
   Mn  Mn35  1  0.622847  0.245694  0.406381  0  .  1
   Mn  Mn36  1  0.377153  0.754306  0.593618  0  .  1
   Mn  Mn37  1  0.000000  0.000000  0.000000  0  .  1
   Mn  Mn38  1  0.500000  0.000000  0.500000  0  .  1
   Mn  Mn39  1  0.750213  0.500426  0.810779  0  .  1
   Mn  Mn40  1  0.249787  0.499574  0.189221  0  .  1
   Mn  Mn41  1  0.749787  0.499574  0.310779  0  .  1
   Mn  Mn42  1  0.250213  0.500426  0.689221  0  .  1
   Ba  Ba43  1  0.355632  0.711264  0.022117  0  .  1
   Ba  Ba44  1  0.644367  0.288735  0.977883  0  .  1
   Ba  Ba45  1  0.855632  0.711264  0.477883  0  .  1
   Ba  Ba46  1  0.144368  0.288735  0.522117  0  .  1
   Ba  Ba47  1  0.912533  0.825067  0.678768  0  .  1
   Ba  Ba48  1  0.087466  0.174933  0.321232  0  .  1
   Ba  Ba49  1  0.587466  0.174933  0.178768  0  .  1
   Ba  Ba50  1  0.412534  0.825067  0.821232  0  .  1
   Ba  Ba51  1  0.620506  0.241012  0.663696  0  .  1
   Ba  Ba52  1  0.379494  0.758988  0.336303  0  .  1
   Ba  Ba53  1  0.879493  0.758988  0.163697  0  .  1
   Ba  Ba54  1  0.120506  0.241012  0.836304  0  .  1
 
