#\#CIF1.1
##########################################################################
#               Crystallographic Information Format file 
#               Produced by PyCifRW module
# 
#  This is a CIF file.  CIF has been adopted by the International
#  Union of Crystallography as the standard for data archiving and 
#  transmission.
#
#  For information on this file format, follow the CIF links at
#  http://www.iucr.org
##########################################################################

data_Ba8Fe8O21
_symmetry_space_group_name_H-M          'P 1'
_cell_length_a                          5.74417756414
_cell_length_b                          5.81629989497
_cell_length_c                          19.0949081042
_cell_angle_alpha                       99.3033281811
_cell_angle_beta                        98.0816661263
_cell_angle_gamma                       60.0287708279
_chemical_name_systematic               'Generated by pymatgen'
_symmetry_Int_Tables_number             1
_chemical_formula_structural            Ba8Fe8O21
_chemical_formula_sum                   'Ba8 Fe8 O21'
_cell_volume                            544.041721513
_cell_formula_units_Z                   1
loop_
  _symmetry_equiv_pos_site_id
  _symmetry_equiv_pos_as_xyz
   1  'x, y, z'
 
loop_
  _atom_site_type_symbol
  _atom_site_label
  _atom_site_symmetry_multiplicity
  _atom_site_fract_x
  _atom_site_fract_y
  _atom_site_fract_z
  _atom_site_attached_hydrogens
  _atom_site_B_iso_or_equiv
  _atom_site_occupancy
   Ba  Ba1  1  0.751796  0.750811  0.251986  0  .  1
   Ba  Ba2  1  0.375000  0.375000  0.125000  0  .  1
   Ba  Ba3  1  0.998204  0.999189  0.998014  0  .  1
   Ba  Ba4  1  0.875000  0.875000  0.625000  0  .  1
   Ba  Ba5  1  0.495684  0.506738  0.496791  0  .  1
   Ba  Ba6  1  0.123214  0.126612  0.371356  0  .  1
   Ba  Ba7  1  0.626786  0.623388  0.878644  0  .  1
   Ba  Ba8  1  0.254316  0.243262  0.753209  0  .  1
   Fe  Fe9  1  0.663349  0.659676  0.055827  0  .  1
   Fe  Fe10  1  0.784633  0.863275  0.429370  0  .  1
   Fe  Fe11  1  0.086651  0.090324  0.194173  0  .  1
   Fe  Fe12  1  0.439654  0.452607  0.311270  0  .  1
   Fe  Fe13  1  0.965367  0.886725  0.820630  0  .  1
   Fe  Fe14  1  0.203962  0.160180  0.568612  0  .  1
   Fe  Fe15  1  0.546038  0.589820  0.681388  0  .  1
   Fe  Fe16  1  0.310346  0.297393  0.938730  0  .  1
   O  O17  1  0.494497  0.480806  0.998076  0  .  1
   O  O18  1  0.375000  0.875000  0.125000  0  .  1
   O  O19  1  0.990428  0.517470  0.007620  0  .  1
   O  O20  1  0.875000  0.375000  0.125000  0  .  1
   O  O21  1  0.245764  0.758456  0.248423  0  .  1
   O  O22  1  0.504236  0.991544  0.001577  0  .  1
   O  O23  1  0.115358  0.627968  0.383551  0  .  1
   O  O24  1  0.759572  0.232530  0.242380  0  .  1
   O  O25  1  0.628917  0.630747  0.375779  0  .  1
   O  O26  1  0.255503  0.269194  0.251924  0  .  1
   O  O27  1  0.375000  0.875000  0.625000  0  .  1
   O  O28  1  0.618116  0.149001  0.372300  0  .  1
   O  O29  1  0.875000  0.375000  0.625000  0  .  1
   O  O30  1  0.375000  0.375000  0.625000  0  .  1
   O  O31  1  0.756275  0.730378  0.749384  0  .  1
   O  O32  1  0.993725  0.019622  0.500616  0  .  1
   O  O33  1  0.500291  0.005427  0.499478  0  .  1
   O  O34  1  0.249709  0.744573  0.750522  0  .  1
   O  O35  1  0.131884  0.600999  0.877700  0  .  1
   O  O36  1  0.121083  0.119253  0.874221  0  .  1
   O  O37  1  0.634642  0.122032  0.866449  0  .  1
 
