#\#CIF1.1
##########################################################################
#               Crystallographic Information Format file 
#               Produced by PyCifRW module
# 
#  This is a CIF file.  CIF has been adopted by the International
#  Union of Crystallography as the standard for data archiving and 
#  transmission.
#
#  For information on this file format, follow the CIF links at
#  http://www.iucr.org
##########################################################################

data_Ba8Mn8O21
_symmetry_space_group_name_H-M          'P 1'
_cell_length_a                          5.79187789164
_cell_length_b                          11.6534247303
_cell_length_c                          9.57537006048
_cell_angle_alpha                       89.9673001971
_cell_angle_beta                        90.0122649813
_cell_angle_gamma                       120.159301011
_chemical_name_systematic               'Generated by pymatgen'
_symmetry_Int_Tables_number             1
_chemical_formula_structural            Ba8Mn8O21
_chemical_formula_sum                   'Ba8 Mn8 O21'
_cell_volume                            558.804274273
_cell_formula_units_Z                   1
loop_
  _symmetry_equiv_pos_site_id
  _symmetry_equiv_pos_as_xyz
   1  'x, y, z'
 
loop_
  _atom_site_type_symbol
  _atom_site_label
  _atom_site_symmetry_multiplicity
  _atom_site_fract_x
  _atom_site_fract_y
  _atom_site_fract_z
  _atom_site_attached_hydrogens
  _atom_site_B_iso_or_equiv
  _atom_site_occupancy
   Ba  Ba1  1  0.994790  0.002584  0.508862  0  .  1
   Ba  Ba2  1  0.340639  0.830614  0.250296  0  .  1
   Ba  Ba3  1  0.986626  0.494199  0.029100  0  .  1
   Ba  Ba4  1  0.676552  0.669316  0.750444  0  .  1
   Ba  Ba5  1  0.330349  0.337019  0.250641  0  .  1
   Ba  Ba6  1  0.994792  0.002481  0.991632  0  .  1
   Ba  Ba7  1  0.986789  0.494220  0.471906  0  .  1
   Ba  Ba8  1  0.655867  0.162814  0.750424  0  .  1
   Mn  Mn9  1  0.333803  0.836899  0.898105  0  .  1
   Mn  Mn10  1  0.333698  0.836979  0.602491  0  .  1
   Mn  Mn11  1  0.664278  0.666710  0.389398  0  .  1
   Mn  Mn12  1  0.354083  0.333837  0.893877  0  .  1
   Mn  Mn13  1  0.664277  0.666624  0.111520  0  .  1
   Mn  Mn14  1  0.354335  0.333831  0.607475  0  .  1
   Mn  Mn15  1  0.690209  0.171661  0.391154  0  .  1
   Mn  Mn16  1  0.689989  0.171525  0.109723  0  .  1
   O  O17  1  0.989886  0.740441  0.996347  0  .  1
   O  O18  1  0.165496  0.886690  0.750346  0  .  1
   O  O19  1  0.488642  0.002878  0.483977  0  .  1
   O  O20  1  0.604111  0.889998  0.750201  0  .  1
   O  O21  1  0.488707  0.741874  0.505202  0  .  1
   O  O22  1  0.012375  0.264189  0.978873  0  .  1
   O  O23  1  0.013017  0.263764  0.521826  0  .  1
   O  O24  1  0.488551  0.741587  0.995272  0  .  1
   O  O25  1  0.372574  0.595327  0.250479  0  .  1
   O  O26  1  0.817057  0.813292  0.250278  0  .  1
   O  O27  1  0.494535  0.505479  0.504106  0  .  1
   O  O28  1  0.494839  0.505257  0.997354  0  .  1
   O  O29  1  0.187405  0.193306  0.750727  0  .  1
   O  O30  1  0.806475  0.592674  0.250613  0  .  1
   O  O31  1  0.651109  0.416486  0.750749  0  .  1
   O  O32  1  0.989612  0.740343  0.504555  0  .  1
   O  O33  1  0.484419  0.237669  0.480336  0  .  1
   O  O34  1  0.482599  0.237033  0.021297  0  .  1
   O  O35  1  0.813374  0.316149  0.250378  0  .  1
   O  O36  1  0.489906  0.002964  0.016318  0  .  1
   O  O37  1  0.829420  0.094449  0.250519  0  .  1
 
