#\#CIF1.1
##########################################################################
#               Crystallographic Information Format file 
#               Produced by PyCifRW module
# 
#  This is a CIF file.  CIF has been adopted by the International
#  Union of Crystallography as the standard for data archiving and 
#  transmission.
#
#  For information on this file format, follow the CIF links at
#  http://www.iucr.org
##########################################################################

data_Ba9Fe4S15
_symmetry_space_group_name_H-M          'P 1'
_cell_length_a                          9.63431949
_cell_length_b                          12.71922483
_cell_length_c                          25.39013093
_cell_angle_alpha                       90.0
_cell_angle_beta                        90.0
_cell_angle_gamma                       90.0
_chemical_name_systematic               'Generated by pymatgen'
_symmetry_Int_Tables_number             1
_chemical_formula_structural            Ba9Fe4S15
_chemical_formula_sum                   'Ba36 Fe16 S60'
_cell_volume                            3111.33395575
_cell_formula_units_Z                   4
loop_
  _symmetry_equiv_pos_site_id
  _symmetry_equiv_pos_as_xyz
   1  'x, y, z'
 
loop_
  _atom_site_type_symbol
  _atom_site_label
  _atom_site_symmetry_multiplicity
  _atom_site_fract_x
  _atom_site_fract_y
  _atom_site_fract_z
  _atom_site_attached_hydrogens
  _atom_site_B_iso_or_equiv
  _atom_site_occupancy
   Ba  Ba1  1  0.488901  0.320478  0.513143  0  .  1
   Ba  Ba2  1  0.250000  0.555890  0.642500  0  .  1
   Ba  Ba3  1  0.468828  0.869637  0.640376  0  .  1
   Ba  Ba4  1  0.014824  0.801377  0.307102  0  .  1
   Ba  Ba5  1  0.750000  0.461782  0.021678  0  .  1
   Ba  Ba6  1  0.488901  0.179522  0.013143  0  .  1
   Ba  Ba7  1  0.250000  0.538218  0.978322  0  .  1
   Ba  Ba8  1  0.750000  0.038218  0.521678  0  .  1
   Ba  Ba9  1  0.031172  0.630363  0.140376  0  .  1
   Ba  Ba10  1  0.750000  0.475360  0.707825  0  .  1
   Ba  Ba11  1  0.250000  0.944110  0.142500  0  .  1
   Ba  Ba12  1  0.468828  0.630363  0.140376  0  .  1
   Ba  Ba13  1  0.514824  0.198623  0.692898  0  .  1
   Ba  Ba14  1  0.531172  0.369637  0.859624  0  .  1
   Ba  Ba15  1  0.511099  0.820478  0.986857  0  .  1
   Ba  Ba16  1  0.988901  0.820478  0.986857  0  .  1
   Ba  Ba17  1  0.750000  0.024640  0.207825  0  .  1
   Ba  Ba18  1  0.485176  0.801377  0.307102  0  .  1
   Ba  Ba19  1  0.514824  0.301377  0.192898  0  .  1
   Ba  Ba20  1  0.485176  0.698623  0.807102  0  .  1
   Ba  Ba21  1  0.531172  0.130363  0.359624  0  .  1
   Ba  Ba22  1  0.750000  0.055890  0.857500  0  .  1
   Ba  Ba23  1  0.511099  0.679522  0.486857  0  .  1
   Ba  Ba24  1  0.750000  0.444110  0.357500  0  .  1
   Ba  Ba25  1  0.250000  0.961782  0.478322  0  .  1
   Ba  Ba26  1  0.985176  0.301377  0.192898  0  .  1
   Ba  Ba27  1  0.985176  0.198623  0.692898  0  .  1
   Ba  Ba28  1  0.968828  0.130363  0.359624  0  .  1
   Ba  Ba29  1  0.250000  0.975360  0.792175  0  .  1
   Ba  Ba30  1  0.988901  0.679522  0.486857  0  .  1
   Ba  Ba31  1  0.968828  0.369637  0.859624  0  .  1
   Ba  Ba32  1  0.011099  0.320478  0.513143  0  .  1
   Ba  Ba33  1  0.011099  0.179522  0.013143  0  .  1
   Ba  Ba34  1  0.250000  0.524640  0.292175  0  .  1
   Ba  Ba35  1  0.014824  0.698623  0.807102  0  .  1
   Ba  Ba36  1  0.031172  0.869637  0.640376  0  .  1
   Fe  Fe37  1  0.250000  0.080282  0.276300  0  .  1
   Fe  Fe38  1  0.250000  0.368949  0.098816  0  .  1
   Fe  Fe39  1  0.250000  0.322100  0.383984  0  .  1
   Fe  Fe40  1  0.250000  0.516245  0.426742  0  .  1
   Fe  Fe41  1  0.250000  0.177900  0.883984  0  .  1
   Fe  Fe42  1  0.750000  0.822100  0.116016  0  .  1
   Fe  Fe43  1  0.750000  0.631051  0.901184  0  .  1
   Fe  Fe44  1  0.750000  0.677900  0.616016  0  .  1
   Fe  Fe45  1  0.750000  0.868949  0.401184  0  .  1
   Fe  Fe46  1  0.750000  0.580282  0.223700  0  .  1
   Fe  Fe47  1  0.750000  0.483755  0.573258  0  .  1
   Fe  Fe48  1  0.750000  0.016245  0.073258  0  .  1
   Fe  Fe49  1  0.250000  0.983755  0.926742  0  .  1
   Fe  Fe50  1  0.750000  0.919718  0.723700  0  .  1
   Fe  Fe51  1  0.250000  0.419718  0.776300  0  .  1
   Fe  Fe52  1  0.250000  0.131051  0.598816  0  .  1
   S  S53  1  0.949519  0.917469  0.438708  0  .  1
   S  S54  1  0.444175  0.448467  0.733041  0  .  1
   S  S55  1  0.250000  0.722522  0.060089  0  .  1
   S  S56  1  0.750000  0.739078  0.701901  0  .  1
   S  S57  1  0.250000  0.993210  0.013098  0  .  1
   S  S58  1  0.250000  0.682251  0.393937  0  .  1
   S  S59  1  0.937353  0.926992  0.105091  0  .  1
   S  S60  1  0.750000  0.953894  0.322921  0  .  1
   S  S61  1  0.250000  0.260922  0.298099  0  .  1
   S  S62  1  0.250000  0.301335  0.943576  0  .  1
   S  S63  1  0.449519  0.082531  0.561292  0  .  1
   S  S64  1  0.437353  0.073008  0.894909  0  .  1
   S  S65  1  0.750000  0.222522  0.439911  0  .  1
   S  S66  1  0.750000  0.696894  0.387298  0  .  1
   S  S67  1  0.750000  0.182251  0.106063  0  .  1
   S  S68  1  0.550481  0.917469  0.438708  0  .  1
   S  S69  1  0.750000  0.277478  0.939911  0  .  1
   S  S70  1  0.750000  0.006790  0.986902  0  .  1
   S  S71  1  0.437353  0.426992  0.394909  0  .  1
   S  S72  1  0.750000  0.243524  0.277463  0  .  1
   S  S73  1  0.250000  0.303106  0.612702  0  .  1
   S  S74  1  0.250000  0.743524  0.222537  0  .  1
   S  S75  1  0.750000  0.026760  0.654433  0  .  1
   S  S76  1  0.555825  0.551533  0.266959  0  .  1
   S  S77  1  0.250000  0.973240  0.345567  0  .  1
   S  S78  1  0.062647  0.426992  0.394909  0  .  1
   S  S79  1  0.550481  0.582531  0.938708  0  .  1
   S  S80  1  0.050481  0.417469  0.061292  0  .  1
   S  S81  1  0.750000  0.801335  0.556424  0  .  1
   S  S82  1  0.250000  0.198665  0.443576  0  .  1
   S  S83  1  0.750000  0.803106  0.887298  0  .  1
   S  S84  1  0.750000  0.317749  0.606063  0  .  1
   S  S85  1  0.750000  0.698665  0.056424  0  .  1
   S  S86  1  0.055825  0.051533  0.233041  0  .  1
   S  S87  1  0.750000  0.473240  0.154433  0  .  1
   S  S88  1  0.562647  0.926992  0.105091  0  .  1
   S  S89  1  0.555825  0.948467  0.766959  0  .  1
   S  S90  1  0.250000  0.756476  0.722537  0  .  1
   S  S91  1  0.944175  0.551533  0.266959  0  .  1
   S  S92  1  0.250000  0.777478  0.560089  0  .  1
   S  S93  1  0.055825  0.448467  0.733041  0  .  1
   S  S94  1  0.062647  0.073008  0.894909  0  .  1
   S  S95  1  0.750000  0.493210  0.486902  0  .  1
   S  S96  1  0.250000  0.506790  0.513098  0  .  1
   S  S97  1  0.250000  0.046106  0.677079  0  .  1
   S  S98  1  0.562647  0.573008  0.605091  0  .  1
   S  S99  1  0.250000  0.239078  0.798099  0  .  1
   S  S100  1  0.250000  0.526760  0.845567  0  .  1
   S  S101  1  0.750000  0.256476  0.777463  0  .  1
   S  S102  1  0.750000  0.760922  0.201901  0  .  1
   S  S103  1  0.050481  0.082531  0.561292  0  .  1
   S  S104  1  0.250000  0.196894  0.112702  0  .  1
   S  S105  1  0.949519  0.582531  0.938708  0  .  1
   S  S106  1  0.750000  0.546106  0.822921  0  .  1
   S  S107  1  0.937353  0.573008  0.605091  0  .  1
   S  S108  1  0.449519  0.417469  0.061292  0  .  1
   S  S109  1  0.444175  0.051533  0.233041  0  .  1
   S  S110  1  0.250000  0.817749  0.893937  0  .  1
   S  S111  1  0.944175  0.948467  0.766959  0  .  1
   S  S112  1  0.250000  0.453894  0.177079  0  .  1
 
