#\#CIF1.1
##########################################################################
#               Crystallographic Information Format file 
#               Produced by PyCifRW module
# 
#  This is a CIF file.  CIF has been adopted by the International
#  Union of Crystallography as the standard for data archiving and 
#  transmission.
#
#  For information on this file format, follow the CIF links at
#  http://www.iucr.org
##########################################################################

data_BaCoO2
_symmetry_space_group_name_H-M          'P 1'
_cell_length_a                          5.96314709
_cell_length_b                          5.96314708192
_cell_length_c                          6.80448496
_cell_angle_alpha                       90.0
_cell_angle_beta                        90.0
_cell_angle_gamma                       119.999999989
_chemical_name_systematic               'Generated by pymatgen'
_symmetry_Int_Tables_number             1
_chemical_formula_structural            BaCoO2
_chemical_formula_sum                   'Ba3 Co3 O6'
_cell_volume                            209.544822035
_cell_formula_units_Z                   3
loop_
  _symmetry_equiv_pos_site_id
  _symmetry_equiv_pos_as_xyz
   1  'x, y, z'
 
loop_
  _atom_site_type_symbol
  _atom_site_label
  _atom_site_symmetry_multiplicity
  _atom_site_fract_x
  _atom_site_fract_y
  _atom_site_fract_z
  _atom_site_attached_hydrogens
  _atom_site_B_iso_or_equiv
  _atom_site_occupancy
   O  O1  1  0.126106  0.424859  0.874289  0  .  1
   O  O2  1  0.575141  0.701246  0.207622  0  .  1
   O  O3  1  0.298753  0.873895  0.540955  0  .  1
   O  O4  1  0.701247  0.575143  0.792378  0  .  1
   O  O5  1  0.873896  0.298754  0.459045  0  .  1
   O  O6  1  0.424858  0.126105  0.125711  0  .  1
   Co  Co7  1  0.583800  0.000000  0.333333  0  .  1
   Co  Co8  1  0.000000  0.583800  0.666667  0  .  1
   Co  Co9  1  0.416201  0.416200  0.000000  0  .  1
   Ba  Ba10  1  0.653156  0.000000  0.833333  0  .  1
   Ba  Ba11  1  0.999999  0.653155  0.166666  0  .  1
   Ba  Ba12  1  0.346845  0.346845  0.499999  0  .  1
 
