#\#CIF1.1
##########################################################################
#               Crystallographic Information Format file 
#               Produced by PyCifRW module
# 
#  This is a CIF file.  CIF has been adopted by the International
#  Union of Crystallography as the standard for data archiving and 
#  transmission.
#
#  For information on this file format, follow the CIF links at
#  http://www.iucr.org
##########################################################################

data_BaCoS2
_symmetry_space_group_name_H-M          'P 1'
_cell_length_a                          4.3783047
_cell_length_b                          4.3783047
_cell_length_c                          8.94423984
_cell_angle_alpha                       90.0
_cell_angle_beta                        90.0
_cell_angle_gamma                       90.0
_chemical_name_systematic               'Generated by pymatgen'
_symmetry_Int_Tables_number             1
_chemical_formula_structural            BaCoS2
_chemical_formula_sum                   'Ba2 Co2 S4'
_cell_volume                            171.457071125
_cell_formula_units_Z                   2
loop_
  _symmetry_equiv_pos_site_id
  _symmetry_equiv_pos_as_xyz
   1  'x, y, z'
 
loop_
  _atom_site_type_symbol
  _atom_site_label
  _atom_site_symmetry_multiplicity
  _atom_site_fract_x
  _atom_site_fract_y
  _atom_site_fract_z
  _atom_site_attached_hydrogens
  _atom_site_B_iso_or_equiv
  _atom_site_occupancy
   S  S1  1  0.250000  0.750000  0.000000  0  .  1
   S  S2  1  0.750000  0.250000  0.000000  0  .  1
   S  S3  1  0.250000  0.250000  0.341737  0  .  1
   S  S4  1  0.750000  0.750000  0.658263  0  .  1
   Co  Co5  1  0.250000  0.250000  0.088699  0  .  1
   Co  Co6  1  0.750000  0.750000  0.911301  0  .  1
   Ba  Ba7  1  0.750000  0.750000  0.299764  0  .  1
   Ba  Ba8  1  0.250000  0.250000  0.700236  0  .  1
 
