#\#CIF1.1
##########################################################################
#               Crystallographic Information Format file 
#               Produced by PyCifRW module
# 
#  This is a CIF file.  CIF has been adopted by the International
#  Union of Crystallography as the standard for data archiving and 
#  transmission.
#
#  For information on this file format, follow the CIF links at
#  http://www.iucr.org
##########################################################################

data_BaCr4S7
_symmetry_space_group_name_H-M          'P 1'
_cell_length_a                          6.0129928198
_cell_length_b                          6.82437983063
_cell_length_c                          22.94238561
_cell_angle_alpha                       90.0
_cell_angle_beta                        90.0
_cell_angle_gamma                       90.0358697851
_chemical_name_systematic               'Generated by pymatgen'
_symmetry_Int_Tables_number             1
_chemical_formula_structural            BaCr4S7
_chemical_formula_sum                   'Ba4 Cr16 S28'
_cell_volume                            941.439391262
_cell_formula_units_Z                   4
loop_
  _symmetry_equiv_pos_site_id
  _symmetry_equiv_pos_as_xyz
   1  'x, y, z'
 
loop_
  _atom_site_type_symbol
  _atom_site_label
  _atom_site_symmetry_multiplicity
  _atom_site_fract_x
  _atom_site_fract_y
  _atom_site_fract_z
  _atom_site_attached_hydrogens
  _atom_site_B_iso_or_equiv
  _atom_site_occupancy
   Ba  Ba1  1  0.109608  0.627067  0.827258  0  .  1
   Ba  Ba2  1  0.609608  0.627067  0.672742  0  .  1
   Ba  Ba3  1  0.890392  0.372933  0.172742  0  .  1
   Ba  Ba4  1  0.390392  0.372933  0.327258  0  .  1
   Cr  Cr5  1  0.255475  0.128429  0.625477  0  .  1
   Cr  Cr6  1  0.116367  0.871184  0.253554  0  .  1
   Cr  Cr7  1  0.744525  0.871571  0.374523  0  .  1
   Cr  Cr8  1  0.735672  0.624559  0.001051  0  .  1
   Cr  Cr9  1  0.745979  0.124244  0.007363  0  .  1
   Cr  Cr10  1  0.235672  0.624559  0.498949  0  .  1
   Cr  Cr11  1  0.245979  0.124244  0.492637  0  .  1
   Cr  Cr12  1  0.764328  0.375441  0.501051  0  .  1
   Cr  Cr13  1  0.754021  0.875756  0.507363  0  .  1
   Cr  Cr14  1  0.755475  0.128429  0.874523  0  .  1
   Cr  Cr15  1  0.383633  0.128816  0.753554  0  .  1
   Cr  Cr16  1  0.244525  0.871571  0.125477  0  .  1
   Cr  Cr17  1  0.264328  0.375441  0.998949  0  .  1
   Cr  Cr18  1  0.254021  0.875756  0.992637  0  .  1
   Cr  Cr19  1  0.616367  0.871184  0.246446  0  .  1
   Cr  Cr20  1  0.883633  0.128816  0.746446  0  .  1
   S  S21  1  0.563473  0.872128  0.059488  0  .  1
   S  S22  1  0.080630  0.377798  0.440086  0  .  1
   S  S23  1  0.063473  0.872128  0.440512  0  .  1
   S  S24  1  0.114643  0.127568  0.830309  0  .  1
   S  S25  1  0.085451  0.627833  0.055902  0  .  1
   S  S26  1  0.635776  0.899075  0.799280  0  .  1
   S  S27  1  0.094725  0.122985  0.058949  0  .  1
   S  S28  1  0.363193  0.640483  0.200633  0  .  1
   S  S29  1  0.414549  0.372167  0.555902  0  .  1
   S  S30  1  0.914549  0.372167  0.944098  0  .  1
   S  S31  1  0.419370  0.622202  0.940086  0  .  1
   S  S32  1  0.636807  0.359517  0.799367  0  .  1
   S  S33  1  0.585451  0.627833  0.444098  0  .  1
   S  S34  1  0.864224  0.100925  0.299280  0  .  1
   S  S35  1  0.614643  0.127568  0.669691  0  .  1
   S  S36  1  0.885357  0.872432  0.169691  0  .  1
   S  S37  1  0.136807  0.359517  0.700633  0  .  1
   S  S38  1  0.919370  0.622202  0.559914  0  .  1
   S  S39  1  0.936527  0.127872  0.559488  0  .  1
   S  S40  1  0.385357  0.872432  0.330309  0  .  1
   S  S41  1  0.594725  0.122985  0.441051  0  .  1
   S  S42  1  0.405275  0.877015  0.558949  0  .  1
   S  S43  1  0.135776  0.899075  0.700720  0  .  1
   S  S44  1  0.905275  0.877015  0.941051  0  .  1
   S  S45  1  0.580630  0.377798  0.059914  0  .  1
   S  S46  1  0.436527  0.127872  0.940512  0  .  1
   S  S47  1  0.863193  0.640483  0.299367  0  .  1
   S  S48  1  0.364224  0.100925  0.200720  0  .  1
 
