#\#CIF1.1
##########################################################################
#               Crystallographic Information Format file 
#               Produced by PyCifRW module
# 
#  This is a CIF file.  CIF has been adopted by the International
#  Union of Crystallography as the standard for data archiving and 
#  transmission.
#
#  For information on this file format, follow the CIF links at
#  http://www.iucr.org
##########################################################################

data_BaCr2O4
_symmetry_space_group_name_H-M          'P 1'
_cell_length_a                          5.28465553
_cell_length_b                          6.09191276
_cell_length_c                          12.40340236
_cell_angle_alpha                       90.0
_cell_angle_beta                        90.0
_cell_angle_gamma                       90.0
_chemical_name_systematic               'Generated by pymatgen'
_symmetry_Int_Tables_number             1
_chemical_formula_structural            BaCr2O4
_chemical_formula_sum                   'Ba4 Cr8 O16'
_cell_volume                            399.31092407
_cell_formula_units_Z                   4
loop_
  _symmetry_equiv_pos_site_id
  _symmetry_equiv_pos_as_xyz
   1  'x, y, z'
 
loop_
  _atom_site_type_symbol
  _atom_site_label
  _atom_site_symmetry_multiplicity
  _atom_site_fract_x
  _atom_site_fract_y
  _atom_site_fract_z
  _atom_site_attached_hydrogens
  _atom_site_B_iso_or_equiv
  _atom_site_occupancy
   Ba  Ba1  1  0.866510  0.250000  0.750000  0  .  1
   Ba  Ba2  1  0.133490  0.750000  0.250000  0  .  1
   Ba  Ba3  1  0.554094  0.250000  0.250000  0  .  1
   Ba  Ba4  1  0.445906  0.750000  0.750000  0  .  1
   Cr  Cr5  1  0.502226  0.750000  0.494350  0  .  1
   Cr  Cr6  1  0.502226  0.750000  0.005650  0  .  1
   Cr  Cr7  1  0.497774  0.250000  0.505650  0  .  1
   Cr  Cr8  1  0.497774  0.250000  0.994350  0  .  1
   Cr  Cr9  1  0.000000  0.500000  0.500000  0  .  1
   Cr  Cr10  1  0.000000  0.000000  0.000000  0  .  1
   Cr  Cr11  1  0.000000  0.000000  0.500000  0  .  1
   Cr  Cr12  1  0.000000  0.500000  0.000000  0  .  1
   O  O13  1  0.832773  0.750000  0.414546  0  .  1
   O  O14  1  0.832773  0.750000  0.085455  0  .  1
   O  O15  1  0.167227  0.250000  0.585454  0  .  1
   O  O16  1  0.167227  0.250000  0.914546  0  .  1
   O  O17  1  0.168643  0.750000  0.579713  0  .  1
   O  O18  1  0.168643  0.750000  0.920287  0  .  1
   O  O19  1  0.831357  0.250000  0.420287  0  .  1
   O  O20  1  0.831357  0.250000  0.079713  0  .  1
   O  O21  1  0.665203  0.502793  0.587374  0  .  1
   O  O22  1  0.665203  0.997207  0.912626  0  .  1
   O  O23  1  0.334797  0.002793  0.412626  0  .  1
   O  O24  1  0.334797  0.497207  0.087374  0  .  1
   O  O25  1  0.334797  0.497207  0.412626  0  .  1
   O  O26  1  0.334797  0.002793  0.087374  0  .  1
   O  O27  1  0.665203  0.997207  0.587374  0  .  1
   O  O28  1  0.665203  0.502793  0.912626  0  .  1
 
