#\#CIF1.1
##########################################################################
#               Crystallographic Information Format file 
#               Produced by PyCifRW module
# 
#  This is a CIF file.  CIF has been adopted by the International
#  Union of Crystallography as the standard for data archiving and 
#  transmission.
#
#  For information on this file format, follow the CIF links at
#  http://www.iucr.org
##########################################################################

data_BaFe15O23
_symmetry_space_group_name_H-M          'P 1'
_cell_length_a                          28.1428256067
_cell_length_b                          28.1428254287
_cell_length_c                          28.1428259654
_cell_angle_alpha                       12.103084829
_cell_angle_beta                        12.1030865255
_cell_angle_gamma                       12.103085429
_chemical_name_systematic               'Generated by pymatgen'
_symmetry_Int_Tables_number             1
_chemical_formula_structural            BaFe15O23
_chemical_formula_sum                   'Ba2 Fe30 O46'
_cell_volume                            851.771764882
_cell_formula_units_Z                   2
loop_
  _symmetry_equiv_pos_site_id
  _symmetry_equiv_pos_as_xyz
   1  'x, y, z'
 
loop_
  _atom_site_type_symbol
  _atom_site_label
  _atom_site_symmetry_multiplicity
  _atom_site_fract_x
  _atom_site_fract_y
  _atom_site_fract_z
  _atom_site_attached_hydrogens
  _atom_site_B_iso_or_equiv
  _atom_site_occupancy
   Ba  Ba1  1  0.098994  0.098994  0.098994  0  .  1
   Ba  Ba2  1  0.901006  0.901006  0.901006  0  .  1
   Fe  Fe3  1  0.304576  0.805114  0.304576  0  .  1
   Fe  Fe4  1  0.774378  0.273950  0.774378  0  .  1
   Fe  Fe5  1  0.774378  0.774378  0.273950  0  .  1
   Fe  Fe6  1  0.726050  0.225622  0.225622  0  .  1
   Fe  Fe7  1  0.225622  0.225622  0.726050  0  .  1
   Fe  Fe8  1  0.748700  0.748700  0.748700  0  .  1
   Fe  Fe9  1  0.194886  0.695424  0.695424  0  .  1
   Fe  Fe10  1  0.218132  0.218132  0.218132  0  .  1
   Fe  Fe11  1  0.637715  0.637715  0.637715  0  .  1
   Fe  Fe12  1  0.977665  0.977665  0.977665  0  .  1
   Fe  Fe13  1  0.695424  0.194886  0.695424  0  .  1
   Fe  Fe14  1  0.175027  0.175027  0.175027  0  .  1
   Fe  Fe15  1  0.432929  0.432929  0.432929  0  .  1
   Fe  Fe16  1  0.296340  0.296340  0.296340  0  .  1
   Fe  Fe17  1  0.824973  0.824973  0.824973  0  .  1
   Fe  Fe18  1  0.304576  0.304576  0.805114  0  .  1
   Fe  Fe19  1  0.805114  0.304576  0.304576  0  .  1
   Fe  Fe20  1  0.500000  0.000000  0.500000  0  .  1
   Fe  Fe21  1  0.781868  0.781868  0.781868  0  .  1
   Fe  Fe22  1  0.362285  0.362285  0.362285  0  .  1
   Fe  Fe23  1  0.225622  0.726050  0.225622  0  .  1
   Fe  Fe24  1  0.251300  0.251300  0.251300  0  .  1
   Fe  Fe25  1  0.273950  0.774378  0.774378  0  .  1
   Fe  Fe26  1  0.703660  0.703660  0.703660  0  .  1
   Fe  Fe27  1  0.500000  0.500000  0.000000  0  .  1
   Fe  Fe28  1  0.695424  0.695424  0.194886  0  .  1
   Fe  Fe29  1  0.567071  0.567071  0.567071  0  .  1
   Fe  Fe30  1  0.500000  0.500000  0.500000  0  .  1
   Fe  Fe31  1  0.022335  0.022335  0.022335  0  .  1
   Fe  Fe32  1  0.000000  0.500000  0.500000  0  .  1
   O  O33  1  0.968011  0.968011  0.443458  0  .  1
   O  O34  1  0.385078  0.385078  0.933887  0  .  1
   O  O35  1  0.044522  0.044522  0.044522  0  .  1
   O  O36  1  0.904289  0.904289  0.402538  0  .  1
   O  O37  1  0.807304  0.340796  0.807304  0  .  1
   O  O38  1  0.459011  0.459011  0.459011  0  .  1
   O  O39  1  0.031989  0.556542  0.031989  0  .  1
   O  O40  1  0.472963  0.472963  0.925058  0  .  1
   O  O41  1  0.095711  0.095711  0.597462  0  .  1
   O  O42  1  0.597462  0.095711  0.095711  0  .  1
   O  O43  1  0.151625  0.151625  0.151625  0  .  1
   O  O44  1  0.527037  0.527037  0.074942  0  .  1
   O  O45  1  0.807304  0.807304  0.340796  0  .  1
   O  O46  1  0.527037  0.074942  0.527037  0  .  1
   O  O47  1  0.192696  0.659204  0.192696  0  .  1
   O  O48  1  0.363961  0.363961  0.815537  0  .  1
   O  O49  1  0.363961  0.815537  0.363961  0  .  1
   O  O50  1  0.815537  0.363961  0.363961  0  .  1
   O  O51  1  0.443458  0.968011  0.968011  0  .  1
   O  O52  1  0.933887  0.385078  0.385078  0  .  1
   O  O53  1  0.031989  0.031989  0.556542  0  .  1
   O  O54  1  0.540989  0.540989  0.540989  0  .  1
   O  O55  1  0.074942  0.527037  0.527037  0  .  1
   O  O56  1  0.192696  0.192696  0.659204  0  .  1
   O  O57  1  0.184463  0.636039  0.636039  0  .  1
   O  O58  1  0.848375  0.848375  0.848375  0  .  1
   O  O59  1  0.904289  0.402538  0.904289  0  .  1
   O  O60  1  0.556542  0.031989  0.031989  0  .  1
   O  O61  1  0.472963  0.925058  0.472963  0  .  1
   O  O62  1  0.681053  0.681053  0.681053  0  .  1
   O  O63  1  0.595326  0.595326  0.595326  0  .  1
   O  O64  1  0.614922  0.614922  0.066113  0  .  1
   O  O65  1  0.066113  0.614922  0.614922  0  .  1
   O  O66  1  0.925058  0.472963  0.472963  0  .  1
   O  O67  1  0.659204  0.192696  0.192696  0  .  1
   O  O68  1  0.340796  0.807304  0.807304  0  .  1
   O  O69  1  0.402538  0.904289  0.904289  0  .  1
   O  O70  1  0.385078  0.933887  0.385078  0  .  1
   O  O71  1  0.955478  0.955478  0.955478  0  .  1
   O  O72  1  0.095711  0.597462  0.095711  0  .  1
   O  O73  1  0.404674  0.404674  0.404674  0  .  1
   O  O74  1  0.636039  0.636039  0.184463  0  .  1
   O  O75  1  0.614922  0.066113  0.614922  0  .  1
   O  O76  1  0.968011  0.443458  0.968011  0  .  1
   O  O77  1  0.636039  0.184463  0.636039  0  .  1
   O  O78  1  0.318947  0.318947  0.318947  0  .  1
 
