#\#CIF1.1
##########################################################################
#               Crystallographic Information Format file 
#               Produced by PyCifRW module
# 
#  This is a CIF file.  CIF has been adopted by the International
#  Union of Crystallography as the standard for data archiving and 
#  transmission.
#
#  For information on this file format, follow the CIF links at
#  http://www.iucr.org
##########################################################################

data_BaFeO3
_symmetry_space_group_name_H-M          'P 1'
_cell_length_a                          13.0503807579
_cell_length_b                          13.0503808073
_cell_length_c                          13.050381571
_cell_angle_alpha                       27.4037760081
_cell_angle_beta                        27.4037757279
_cell_angle_gamma                       27.403776178
_chemical_name_systematic               'Generated by pymatgen'
_symmetry_Int_Tables_number             1
_chemical_formula_structural            BaFeO3
_chemical_formula_sum                   'Ba4 Fe4 O12'
_cell_volume                            415.524256035
_cell_formula_units_Z                   4
loop_
  _symmetry_equiv_pos_site_id
  _symmetry_equiv_pos_as_xyz
   1  'x, y, z'
 
loop_
  _atom_site_type_symbol
  _atom_site_label
  _atom_site_symmetry_multiplicity
  _atom_site_fract_x
  _atom_site_fract_y
  _atom_site_fract_z
  _atom_site_attached_hydrogens
  _atom_site_B_iso_or_equiv
  _atom_site_occupancy
   Ba  Ba1  1  0.028484  0.028484  0.028484  0  .  1
   Ba  Ba2  1  0.436338  0.436338  0.436338  0  .  1
   Ba  Ba3  1  0.611832  0.611832  0.611832  0  .  1
   Ba  Ba4  1  0.799302  0.799302  0.799302  0  .  1
   Fe  Fe5  1  0.162349  0.162349  0.162349  0  .  1
   Fe  Fe6  1  0.233660  0.233660  0.233660  0  .  1
   Fe  Fe7  1  0.328690  0.328690  0.328690  0  .  1
   Fe  Fe8  1  0.706751  0.706751  0.706751  0  .  1
   O  O9  1  0.991490  0.505284  0.505284  0  .  1
   O  O10  1  0.505284  0.505284  0.991490  0  .  1
   O  O11  1  0.011168  0.599584  0.599584  0  .  1
   O  O12  1  0.599584  0.599584  0.011168  0  .  1
   O  O13  1  0.599584  0.011168  0.599584  0  .  1
   O  O14  1  0.298802  0.845507  0.298802  0  .  1
   O  O15  1  0.298802  0.298802  0.845507  0  .  1
   O  O16  1  0.845507  0.298802  0.298802  0  .  1
   O  O17  1  0.387797  0.387797  0.928196  0  .  1
   O  O18  1  0.387797  0.928196  0.387797  0  .  1
   O  O19  1  0.928196  0.387797  0.387797  0  .  1
   O  O20  1  0.505284  0.991490  0.505284  0  .  1
 
