#\#CIF1.1
##########################################################################
#               Crystallographic Information Format file 
#               Produced by PyCifRW module
# 
#  This is a CIF file.  CIF has been adopted by the International
#  Union of Crystallography as the standard for data archiving and 
#  transmission.
#
#  For information on this file format, follow the CIF links at
#  http://www.iucr.org
##########################################################################

data_BaHfN2
_symmetry_space_group_name_H-M          'P 1'
_cell_length_a                          4.1510133
_cell_length_b                          4.1510133
_cell_length_c                          8.48455624
_cell_angle_alpha                       90.0
_cell_angle_beta                        90.0
_cell_angle_gamma                       90.0
_chemical_name_systematic               'Generated by pymatgen'
_symmetry_Int_Tables_number             1
_chemical_formula_structural            BaHfN2
_chemical_formula_sum                   'Ba2 Hf2 N4'
_cell_volume                            146.196636982
_cell_formula_units_Z                   2
loop_
  _symmetry_equiv_pos_site_id
  _symmetry_equiv_pos_as_xyz
   1  'x, y, z'
 
loop_
  _atom_site_type_symbol
  _atom_site_label
  _atom_site_symmetry_multiplicity
  _atom_site_fract_x
  _atom_site_fract_y
  _atom_site_fract_z
  _atom_site_attached_hydrogens
  _atom_site_B_iso_or_equiv
  _atom_site_occupancy
   N  N1  1  0.750000  0.750000  0.819798  0  .  1
   N  N2  1  0.250000  0.250000  0.180202  0  .  1
   N  N3  1  0.750000  0.250000  0.500000  0  .  1
   N  N4  1  0.250000  0.750000  0.500000  0  .  1
   Ba  Ba5  1  0.750000  0.750000  0.151737  0  .  1
   Ba  Ba6  1  0.250000  0.250000  0.848263  0  .  1
   Hf  Hf7  1  0.250000  0.250000  0.415067  0  .  1
   Hf  Hf8  1  0.750000  0.750000  0.584933  0  .  1
 
