#\#CIF1.1
##########################################################################
#               Crystallographic Information Format file 
#               Produced by PyCifRW module
# 
#  This is a CIF file.  CIF has been adopted by the International
#  Union of Crystallography as the standard for data archiving and 
#  transmission.
#
#  For information on this file format, follow the CIF links at
#  http://www.iucr.org
##########################################################################

data_BaMnS2
_symmetry_space_group_name_H-M          'P 1'
_cell_length_a                          4.16006863
_cell_length_b                          7.19485588
_cell_length_c                          14.0244035
_cell_angle_alpha                       90.0
_cell_angle_beta                        90.0
_cell_angle_gamma                       90.0
_chemical_name_systematic               'Generated by pymatgen'
_symmetry_Int_Tables_number             1
_chemical_formula_structural            BaMnS2
_chemical_formula_sum                   'Ba4 Mn4 S8'
_cell_volume                            419.765742871
_cell_formula_units_Z                   4
loop_
  _symmetry_equiv_pos_site_id
  _symmetry_equiv_pos_as_xyz
   1  'x, y, z'
 
loop_
  _atom_site_type_symbol
  _atom_site_label
  _atom_site_symmetry_multiplicity
  _atom_site_fract_x
  _atom_site_fract_y
  _atom_site_fract_z
  _atom_site_attached_hydrogens
  _atom_site_B_iso_or_equiv
  _atom_site_occupancy
   S  S1  1  0.250000  0.531245  0.758850  0  .  1
   S  S2  1  0.750000  0.468755  0.241150  0  .  1
   S  S3  1  0.250000  0.031245  0.741150  0  .  1
   S  S4  1  0.750000  0.968755  0.258850  0  .  1
   S  S5  1  0.250000  0.762277  0.047927  0  .  1
   S  S6  1  0.750000  0.737723  0.547927  0  .  1
   S  S7  1  0.250000  0.262277  0.452073  0  .  1
   S  S8  1  0.750000  0.237723  0.952073  0  .  1
   Mn  Mn9  1  0.750000  0.231678  0.363899  0  .  1
   Mn  Mn10  1  0.750000  0.731678  0.136101  0  .  1
   Mn  Mn11  1  0.250000  0.768322  0.636101  0  .  1
   Mn  Mn12  1  0.250000  0.268322  0.863899  0  .  1
   Ba  Ba13  1  0.250000  0.706784  0.371613  0  .  1
   Ba  Ba14  1  0.750000  0.293216  0.628387  0  .  1
   Ba  Ba15  1  0.250000  0.206784  0.128387  0  .  1
   Ba  Ba16  1  0.750000  0.793216  0.871613  0  .  1
 
