#\#CIF1.1
##########################################################################
#               Crystallographic Information Format file 
#               Produced by PyCifRW module
# 
#  This is a CIF file.  CIF has been adopted by the International
#  Union of Crystallography as the standard for data archiving and 
#  transmission.
#
#  For information on this file format, follow the CIF links at
#  http://www.iucr.org
##########################################################################

data_BaMn3O6
_symmetry_space_group_name_H-M          'P 1'
_cell_length_a                          4.05608979253
_cell_length_b                          5.78279142356
_cell_length_c                          10.8220667506
_cell_angle_alpha                       97.8734468604
_cell_angle_beta                        100.802993449
_cell_angle_gamma                       90.0000577563
_chemical_name_systematic               'Generated by pymatgen'
_symmetry_Int_Tables_number             1
_chemical_formula_structural            BaMn3O6
_chemical_formula_sum                   'Ba2 Mn6 O12'
_cell_volume                            246.90206422
_cell_formula_units_Z                   2
loop_
  _symmetry_equiv_pos_site_id
  _symmetry_equiv_pos_as_xyz
   1  'x, y, z'
 
loop_
  _atom_site_type_symbol
  _atom_site_label
  _atom_site_symmetry_multiplicity
  _atom_site_fract_x
  _atom_site_fract_y
  _atom_site_fract_z
  _atom_site_attached_hydrogens
  _atom_site_B_iso_or_equiv
  _atom_site_occupancy
   O  O1  1  0.500002  0.000008  1.000003  0  .  1
   O  O2  1  0.500001  0.500004  1.000003  0  .  1
   O  O3  1  0.644961  0.574547  0.289940  0  .  1
   O  O4  1  0.355039  0.425450  0.710059  0  .  1
   O  O5  1  0.643800  0.065053  0.287616  0  .  1
   O  O6  1  0.356200  0.934942  0.712384  0  .  1
   O  O7  1  0.064001  0.781215  0.128075  0  .  1
   O  O8  1  0.935997  0.218791  0.871922  0  .  1
   O  O9  1  0.226795  0.361237  0.453591  0  .  1
   O  O10  1  0.773204  0.638754  0.546406  0  .  1
   O  O11  1  0.770793  0.135135  0.541574  0  .  1
   O  O12  1  0.229206  0.864858  0.458426  0  .  1
   Mn  Mn13  1  0.563295  0.782218  0.126466  0  .  1
   Mn  Mn14  1  0.436705  0.217791  0.873536  0  .  1
   Mn  Mn15  1  0.706103  0.852615  0.412294  0  .  1
   Mn  Mn16  1  0.293896  0.147378  0.587705  0  .  1
   Mn  Mn17  1  0.294323  0.648223  0.588607  0  .  1
   Mn  Mn18  1  0.705675  0.351773  0.411391  0  .  1
   Ba  Ba19  1  0.067851  0.284366  0.135707  0  .  1
   Ba  Ba20  1  0.932149  0.715644  0.864296  0  .  1
 
