#\#CIF1.1
##########################################################################
#               Crystallographic Information Format file 
#               Produced by PyCifRW module
# 
#  This is a CIF file.  CIF has been adopted by the International
#  Union of Crystallography as the standard for data archiving and 
#  transmission.
#
#  For information on this file format, follow the CIF links at
#  http://www.iucr.org
##########################################################################

data_BaMn2O8
_symmetry_space_group_name_H-M          'P 1'
_cell_length_a                          9.08515701796
_cell_length_b                          9.08515753148
_cell_length_c                          7.23143455341
_cell_angle_alpha                       106.141091612
_cell_angle_beta                        106.141090216
_cell_angle_gamma                       123.878919894
_chemical_name_systematic               'Generated by pymatgen'
_symmetry_Int_Tables_number             1
_chemical_formula_structural            BaMn2O8
_chemical_formula_sum                   'Ba2 Mn4 O16'
_cell_volume                            399.744393391
_cell_formula_units_Z                   2
loop_
  _symmetry_equiv_pos_site_id
  _symmetry_equiv_pos_as_xyz
   1  'x, y, z'
 
loop_
  _atom_site_type_symbol
  _atom_site_label
  _atom_site_symmetry_multiplicity
  _atom_site_fract_x
  _atom_site_fract_y
  _atom_site_fract_z
  _atom_site_attached_hydrogens
  _atom_site_B_iso_or_equiv
  _atom_site_occupancy
   Ba  Ba1  1  0.125000  0.875000  0.750000  0  .  1
   Ba  Ba2  1  0.875000  0.125000  0.250000  0  .  1
   Mn  Mn3  1  0.647344  0.352656  0.250000  0  .  1
   Mn  Mn4  1  0.102656  0.897344  0.250000  0  .  1
   Mn  Mn5  1  0.352656  0.647344  0.750000  0  .  1
   Mn  Mn6  1  0.897344  0.102656  0.750000  0  .  1
   O  O7  1  0.823010  0.909362  0.786399  0  .  1
   O  O8  1  0.176990  0.090638  0.213601  0  .  1
   O  O9  1  0.877037  0.463389  0.286399  0  .  1
   O  O10  1  0.029478  0.709638  0.024038  0  .  1
   O  O11  1  0.463389  0.877037  0.786399  0  .  1
   O  O12  1  0.122963  0.536611  0.713601  0  .  1
   O  O13  1  0.685599  0.505440  0.475962  0  .  1
   O  O14  1  0.494560  0.314401  0.024038  0  .  1
   O  O15  1  0.909362  0.823010  0.286399  0  .  1
   O  O16  1  0.709638  0.029478  0.524038  0  .  1
   O  O17  1  0.290362  0.970522  0.475962  0  .  1
   O  O18  1  0.970522  0.290362  0.975962  0  .  1
   O  O19  1  0.314401  0.494560  0.524038  0  .  1
   O  O20  1  0.090638  0.176990  0.713601  0  .  1
   O  O21  1  0.505440  0.685599  0.975962  0  .  1
   O  O22  1  0.536611  0.122963  0.213601  0  .  1
 
