#\#CIF1.1
##########################################################################
#               Crystallographic Information Format file 
#               Produced by PyCifRW module
# 
#  This is a CIF file.  CIF has been adopted by the International
#  Union of Crystallography as the standard for data archiving and 
#  transmission.
#
#  For information on this file format, follow the CIF links at
#  http://www.iucr.org
##########################################################################

data_BaNiO3
_symmetry_space_group_name_H-M          'P 1'
_cell_length_a                          5.72260255
_cell_length_b                          5.72260254398
_cell_length_c                          4.82718438
_cell_angle_alpha                       90.0
_cell_angle_beta                        90.0
_cell_angle_gamma                       119.999999977
_chemical_name_systematic               'Generated by pymatgen'
_symmetry_Int_Tables_number             1
_chemical_formula_structural            BaNiO3
_chemical_formula_sum                   'Ba2 Ni2 O6'
_cell_volume                            136.902597099
_cell_formula_units_Z                   2
loop_
  _symmetry_equiv_pos_site_id
  _symmetry_equiv_pos_as_xyz
   1  'x, y, z'
 
loop_
  _atom_site_type_symbol
  _atom_site_label
  _atom_site_symmetry_multiplicity
  _atom_site_fract_x
  _atom_site_fract_y
  _atom_site_fract_z
  _atom_site_attached_hydrogens
  _atom_site_B_iso_or_equiv
  _atom_site_occupancy
   O  O1  1  0.853651  0.146349  0.238096  0  .  1
   O  O2  1  0.707303  0.853652  0.738095  0  .  1
   O  O3  1  0.146349  0.292697  0.738095  0  .  1
   O  O4  1  0.853650  0.707301  0.238096  0  .  1
   O  O5  1  0.146349  0.853652  0.738095  0  .  1
   O  O6  1  0.292697  0.146349  0.238096  0  .  1
   Ni  Ni7  1  0.000000  0.000000  0.488421  0  .  1
   Ni  Ni8  1  0.000000  0.000000  0.988422  0  .  1
   Ba  Ba9  1  0.666667  0.333334  0.749792  0  .  1
   Ba  Ba10  1  0.333333  0.666666  0.249791  0  .  1
 
