#\#CIF1.1
##########################################################################
#               Crystallographic Information Format file 
#               Produced by PyCifRW module
# 
#  This is a CIF file.  CIF has been adopted by the International
#  Union of Crystallography as the standard for data archiving and 
#  transmission.
#
#  For information on this file format, follow the CIF links at
#  http://www.iucr.org
##########################################################################

data_BaS2
_symmetry_space_group_name_H-M          'P 1'
_cell_length_a                          4.83751108584
_cell_length_b                          5.25840209098
_cell_length_c                          8.43044386211
_cell_angle_alpha                       79.8989398556
_cell_angle_beta                        73.3271116503
_cell_angle_gamma                       62.6142351746
_chemical_name_systematic               'Generated by pymatgen'
_symmetry_Int_Tables_number             1
_chemical_formula_structural            BaS2
_chemical_formula_sum                   'Ba2 S4'
_cell_volume                            182.173424389
_cell_formula_units_Z                   2
loop_
  _symmetry_equiv_pos_site_id
  _symmetry_equiv_pos_as_xyz
   1  'x, y, z'
 
loop_
  _atom_site_type_symbol
  _atom_site_label
  _atom_site_symmetry_multiplicity
  _atom_site_fract_x
  _atom_site_fract_y
  _atom_site_fract_z
  _atom_site_attached_hydrogens
  _atom_site_B_iso_or_equiv
  _atom_site_occupancy
   S  S1  1  0.483196  0.302010  0.020116  0  .  1
   S  S2  1  0.805322  0.197990  0.479884  0  .  1
   S  S3  1  0.194678  0.802010  0.520116  0  .  1
   S  S4  1  0.516804  0.697990  0.979884  0  .  1
   Ba  Ba5  1  0.141038  0.250000  0.750000  0  .  1
   Ba  Ba6  1  0.858962  0.750000  0.250000  0  .  1
 
