#\#CIF1.1
##########################################################################
#               Crystallographic Information Format file 
#               Produced by PyCifRW module
# 
#  This is a CIF file.  CIF has been adopted by the International
#  Union of Crystallography as the standard for data archiving and 
#  transmission.
#
#  For information on this file format, follow the CIF links at
#  http://www.iucr.org
##########################################################################

data_BaTi14O28
_symmetry_space_group_name_H-M          'P 1'
_cell_length_a                          10.4362114734
_cell_length_b                          8.48568507461
_cell_length_c                          13.5171188473
_cell_angle_alpha                       84.8228597418
_cell_angle_beta                        83.8094659945
_cell_angle_gamma                       111.258033698
_chemical_name_systematic               'Generated by pymatgen'
_symmetry_Int_Tables_number             1
_chemical_formula_structural            BaTi14O28
_chemical_formula_sum                   'Ba2 Ti28 O56'
_cell_volume                            1098.23935077
_cell_formula_units_Z                   2
loop_
  _symmetry_equiv_pos_site_id
  _symmetry_equiv_pos_as_xyz
   1  'x, y, z'
 
loop_
  _atom_site_type_symbol
  _atom_site_label
  _atom_site_symmetry_multiplicity
  _atom_site_fract_x
  _atom_site_fract_y
  _atom_site_fract_z
  _atom_site_attached_hydrogens
  _atom_site_B_iso_or_equiv
  _atom_site_occupancy
   Ba  Ba1  1  0.426509  0.573729  0.427007  0  .  1
   Ba  Ba2  1  0.855320  0.144443  0.854651  0  .  1
   Ti  Ti3  1  0.875082  0.829545  0.351708  0  .  1
   Ti  Ti4  1  0.736615  0.975445  0.206737  0  .  1
   Ti  Ti5  1  0.789950  0.868433  0.608816  0  .  1
   Ti  Ti6  1  0.933821  0.730273  0.753019  0  .  1
   Ti  Ti7  1  0.923448  0.411724  0.103640  0  .  1
   Ti  Ti8  1  0.630680  0.687051  0.817566  0  .  1
   Ti  Ti9  1  0.495443  0.845512  0.676812  0  .  1
   Ti  Ti10  1  0.779513  0.555785  0.960408  0  .  1
   Ti  Ti11  1  0.352086  0.984673  0.532769  0  .  1
   Ti  Ti12  1  0.700832  0.596943  0.215486  0  .  1
   Ti  Ti13  1  0.549071  0.738896  0.078887  0  .  1
   Ti  Ti14  1  0.981299  0.312290  0.506099  0  .  1
   Ti  Ti15  1  0.838274  0.455526  0.363917  0  .  1
   Ti  Ti16  1  0.410346  0.884587  0.934030  0  .  1
   Ti  Ti17  1  0.585055  0.117301  0.070419  0  .  1
   Ti  Ti18  1  0.447361  0.258951  0.921729  0  .  1
   Ti  Ti19  1  0.304345  0.401634  0.779397  0  .  1
   Ti  Ti20  1  0.019889  0.685032  0.494146  0  .  1
   Ti  Ti21  1  0.157775  0.545638  0.643404  0  .  1
   Ti  Ti22  1  0.655023  0.027133  0.468174  0  .  1
   Ti  Ti23  1  0.362492  0.302355  0.181895  0  .  1
   Ti  Ti24  1  0.506417  0.159227  0.325333  0  .  1
   Ti  Ti25  1  0.218689  0.441529  0.037735  0  .  1
   Ti  Ti26  1  0.082158  0.600473  0.898698  0  .  1
   Ti  Ti27  1  0.066837  0.272564  0.247926  0  .  1
   Ti  Ti28  1  0.203416  0.113348  0.387044  0  .  1
   Ti  Ti29  1  0.128078  0.168999  0.642209  0  .  1
   Ti  Ti30  1  0.265794  0.029398  0.791777  0  .  1
   O  O31  1  0.961843  0.959784  0.677609  0  .  1
   O  O32  1  0.707451  0.977598  0.066062  0  .  1
   O  O33  1  0.987374  0.689916  0.353424  0  .  1
   O  O34  1  0.846142  0.832466  0.210614  0  .  1
   O  O35  1  0.884477  0.804968  0.499976  0  .  1
   O  O36  1  0.735628  0.942677  0.357534  0  .  1
   O  O37  1  0.957792  0.622280  0.012895  0  .  1
   O  O38  1  0.816251  0.770246  0.870374  0  .  1
   O  O39  1  0.673259  0.912089  0.729079  0  .  1
   O  O40  1  0.469326  0.943869  0.415194  0  .  1
   O  O41  1  0.897961  0.516472  0.843221  0  .  1
   O  O42  1  0.755508  0.662624  0.701323  0  .  1
   O  O43  1  0.612417  0.802422  0.556656  0  .  1
   O  O44  1  0.973233  0.338891  0.357624  0  .  1
   O  O45  1  0.831442  0.481995  0.214379  0  .  1
   O  O46  1  0.689155  0.624999  0.071447  0  .  1
   O  O47  1  0.577853  0.736680  0.219799  0  .  1
   O  O48  1  0.868505  0.453635  0.504561  0  .  1
   O  O49  1  0.718850  0.595579  0.362338  0  .  1
   O  O50  1  0.439399  0.881851  0.075018  0  .  1
   O  O51  1  0.550067  0.771695  0.928144  0  .  1
   O  O52  1  0.401205  0.909480  0.785694  0  .  1
   O  O53  1  0.752213  0.324789  0.035333  0  .  1
   O  O54  1  0.893001  0.185811  0.182789  0  .  1
   O  O55  1  0.463892  0.615330  0.751743  0  .  1
   O  O56  1  0.180547  0.898030  0.466923  0  .  1
   O  O57  1  0.609003  0.469821  0.894967  0  .  1
   O  O58  1  0.323741  0.754708  0.608042  0  .  1
   O  O59  1  0.533381  0.389811  0.250315  0  .  1
   O  O60  1  0.821915  0.099062  0.533898  0  .  1
   O  O61  1  0.676646  0.244621  0.390813  0  .  1
   O  O62  1  0.392632  0.528508  0.102870  0  .  1
   O  O63  1  0.250514  0.670703  0.961745  0  .  1
   O  O64  1  0.105257  0.816231  0.818746  0  .  1
   O  O65  1  0.596586  0.089484  0.214186  0  .  1
   O  O66  1  0.454110  0.232251  0.071260  0  .  1
   O  O67  1  0.566886  0.118913  0.923157  0  .  1
   O  O68  1  0.277721  0.405574  0.634532  0  .  1
   O  O69  1  0.417226  0.260649  0.781185  0  .  1
   O  O70  1  0.137486  0.546161  0.495094  0  .  1
   O  O71  1  0.024194  0.661921  0.641610  0  .  1
   O  O72  1  0.163465  0.512658  0.787438  0  .  1
   O  O73  1  0.312422  0.375350  0.928060  0  .  1
   O  O74  1  0.387710  0.197769  0.442380  0  .  1
   O  O75  1  0.245673  0.341569  0.301153  0  .  1
   O  O76  1  0.530043  0.051628  0.584371  0  .  1
   O  O77  1  0.098847  0.477921  0.154977  0  .  1
   O  O78  1  0.186834  0.236253  0.130687  0  .  1
   O  O79  1  0.327798  0.092099  0.272742  0  .  1
   O  O80  1  0.040061  0.373083  0.984498  0  .  1
   O  O81  1  0.261417  0.052425  0.644067  0  .  1
   O  O82  1  0.122141  0.201656  0.498262  0  .  1
   O  O83  1  0.007626  0.308660  0.651075  0  .  1
   O  O84  1  0.148500  0.168312  0.790346  0  .  1
   O  O85  1  0.298283  0.024346  0.932235  0  .  1
   O  O86  1  0.035192  0.043526  0.323814  0  .  1
 
