#\#CIF1.1
##########################################################################
#               Crystallographic Information Format file 
#               Produced by PyCifRW module
# 
#  This is a CIF file.  CIF has been adopted by the International
#  Union of Crystallography as the standard for data archiving and 
#  transmission.
#
#  For information on this file format, follow the CIF links at
#  http://www.iucr.org
##########################################################################

data_BaTi5O11
_symmetry_space_group_name_H-M          'P 1'
_cell_length_a                          7.62484087908
_cell_length_b                          7.73584089934
_cell_length_c                          14.24450536
_cell_angle_alpha                       90.0
_cell_angle_beta                        90.0
_cell_angle_gamma                       98.3475155649
_chemical_name_systematic               'Generated by pymatgen'
_symmetry_Int_Tables_number             1
_chemical_formula_structural            BaTi5O11
_chemical_formula_sum                   'Ba4 Ti20 O44'
_cell_volume                            831.304458835
_cell_formula_units_Z                   4
loop_
  _symmetry_equiv_pos_site_id
  _symmetry_equiv_pos_as_xyz
   1  'x, y, z'
 
loop_
  _atom_site_type_symbol
  _atom_site_label
  _atom_site_symmetry_multiplicity
  _atom_site_fract_x
  _atom_site_fract_y
  _atom_site_fract_z
  _atom_site_attached_hydrogens
  _atom_site_B_iso_or_equiv
  _atom_site_occupancy
   O  O1  1  0.041526  0.828793  0.071843  0  .  1
   O  O2  1  0.458474  0.671207  0.571843  0  .  1
   O  O3  1  0.958474  0.171207  0.928157  0  .  1
   O  O4  1  0.541526  0.328793  0.428157  0  .  1
   O  O5  1  0.680205  0.660347  0.103984  0  .  1
   O  O6  1  0.819795  0.839653  0.603984  0  .  1
   O  O7  1  0.319795  0.339653  0.896016  0  .  1
   O  O8  1  0.180205  0.160347  0.396016  0  .  1
   O  O9  1  0.413930  0.912834  0.097925  0  .  1
   O  O10  1  0.086070  0.587166  0.597925  0  .  1
   O  O11  1  0.586070  0.087166  0.902075  0  .  1
   O  O12  1  0.913930  0.412834  0.402075  0  .  1
   O  O13  1  0.778504  0.024905  0.087148  0  .  1
   O  O14  1  0.721496  0.475095  0.587148  0  .  1
   O  O15  1  0.221496  0.975095  0.912852  0  .  1
   O  O16  1  0.278504  0.524905  0.412852  0  .  1
   O  O17  1  0.571257  0.271927  0.091212  0  .  1
   O  O18  1  0.899096  0.392979  0.073810  0  .  1
   O  O19  1  0.100904  0.607021  0.926190  0  .  1
   O  O20  1  0.399096  0.892979  0.426190  0  .  1
   O  O21  1  0.304150  0.584666  0.083411  0  .  1
   O  O22  1  0.195850  0.915334  0.583411  0  .  1
   O  O23  1  0.695850  0.415334  0.916589  0  .  1
   O  O24  1  0.804150  0.084666  0.416589  0  .  1
   O  O25  1  0.005637  0.994853  0.251842  0  .  1
   O  O26  1  0.494363  0.505147  0.751842  0  .  1
   O  O27  1  0.994363  0.005147  0.748158  0  .  1
   O  O28  1  0.505637  0.494853  0.248158  0  .  1
   O  O29  1  0.393096  0.124565  0.259224  0  .  1
   O  O30  1  0.106904  0.375435  0.759224  0  .  1
   O  O31  1  0.606904  0.875435  0.740776  0  .  1
   O  O32  1  0.893096  0.624565  0.240776  0  .  1
   O  O33  1  0.764431  0.243263  0.240864  0  .  1
   O  O34  1  0.735569  0.256737  0.740864  0  .  1
   O  O35  1  0.235569  0.756737  0.759136  0  .  1
   O  O36  1  0.264431  0.743263  0.259136  0  .  1
   O  O37  1  0.136981  0.371247  0.260373  0  .  1
   O  O38  1  0.363019  0.128753  0.760373  0  .  1
   O  O39  1  0.863019  0.628753  0.739627  0  .  1
   O  O40  1  0.636981  0.871247  0.239627  0  .  1
   O  O41  1  0.071257  0.771926  0.408788  0  .  1
   O  O42  1  0.428743  0.728074  0.908788  0  .  1
   O  O43  1  0.928743  0.228074  0.591212  0  .  1
   O  O44  1  0.600904  0.107021  0.573810  0  .  1
   Ti  Ti45  1  0.252496  0.730465  0.509898  0  .  1
   Ti  Ti46  1  0.247504  0.769535  0.009898  0  .  1
   Ti  Ti47  1  0.747504  0.269535  0.490102  0  .  1
   Ti  Ti48  1  0.752496  0.230465  0.990102  0  .  1
   Ti  Ti49  1  0.744895  0.449025  0.160461  0  .  1
   Ti  Ti50  1  0.755105  0.050975  0.660461  0  .  1
   Ti  Ti51  1  0.255105  0.550975  0.839539  0  .  1
   Ti  Ti52  1  0.244895  0.949025  0.339539  0  .  1
   Ti  Ti53  1  0.579852  0.070233  0.175099  0  .  1
   Ti  Ti54  1  0.920148  0.429767  0.675099  0  .  1
   Ti  Ti55  1  0.420148  0.929767  0.824901  0  .  1
   Ti  Ti56  1  0.079852  0.570233  0.324901  0  .  1
   Ti  Ti57  1  0.869147  0.845347  0.160329  0  .  1
   Ti  Ti58  1  0.630853  0.654653  0.660329  0  .  1
   Ti  Ti59  1  0.130853  0.154653  0.839671  0  .  1
   Ti  Ti60  1  0.369147  0.345347  0.339671  0  .  1
   Ti  Ti61  1  0.451328  0.690277  0.176420  0  .  1
   Ti  Ti62  1  0.048672  0.809723  0.676420  0  .  1
   Ti  Ti63  1  0.548672  0.309723  0.823580  0  .  1
   Ti  Ti64  1  0.951328  0.190277  0.323580  0  .  1
   Ba  Ba65  1  0.700861  0.736068  0.417808  0  .  1
   Ba  Ba66  1  0.799139  0.763932  0.917808  0  .  1
   Ba  Ba67  1  0.299139  0.263932  0.582192  0  .  1
   Ba  Ba68  1  0.200861  0.236068  0.082192  0  .  1
 
