#\#CIF1.1
##########################################################################
#               Crystallographic Information Format file 
#               Produced by PyCifRW module
# 
#  This is a CIF file.  CIF has been adopted by the International
#  Union of Crystallography as the standard for data archiving and 
#  transmission.
#
#  For information on this file format, follow the CIF links at
#  http://www.iucr.org
##########################################################################

data_BaV10O17
_symmetry_space_group_name_H-M          'P 1'
_cell_length_a                          11.453784028
_cell_length_b                          10.1173130498
_cell_length_c                          6.03675282097
_cell_angle_alpha                       107.434854245
_cell_angle_beta                        105.315407175
_cell_angle_gamma                       87.602972636
_chemical_name_systematic               'Generated by pymatgen'
_symmetry_Int_Tables_number             1
_chemical_formula_structural            BaV10O17
_chemical_formula_sum                   'Ba2 V20 O34'
_cell_volume                            643.177993493
_cell_formula_units_Z                   2
loop_
  _symmetry_equiv_pos_site_id
  _symmetry_equiv_pos_as_xyz
   1  'x, y, z'
 
loop_
  _atom_site_type_symbol
  _atom_site_label
  _atom_site_symmetry_multiplicity
  _atom_site_fract_x
  _atom_site_fract_y
  _atom_site_fract_z
  _atom_site_attached_hydrogens
  _atom_site_B_iso_or_equiv
  _atom_site_occupancy
   Ba  Ba1  1  0.498770  0.499395  0.244274  0  .  1
   Ba  Ba2  1  0.999638  0.999006  0.504899  0  .  1
   V  V3  1  0.858325  0.322294  0.588825  0  .  1
   V  V4  1  0.868232  0.327439  0.100983  0  .  1
   V  V5  1  0.834449  0.016247  0.921050  0  .  1
   V  V6  1  0.852734  0.675980  0.017984  0  .  1
   V  V7  1  0.842870  0.656549  0.497150  0  .  1
   V  V8  1  0.665673  0.482632  0.828968  0  .  1
   V  V9  1  0.631618  0.172159  0.650254  0  .  1
   V  V10  1  0.640842  0.175901  0.159520  0  .  1
   V  V11  1  0.646085  0.822616  0.731953  0  .  1
   V  V12  1  0.657687  0.843245  0.254539  0  .  1
   V  V13  1  0.353535  0.175900  0.263258  0  .  1
   V  V14  1  0.342565  0.156403  0.753425  0  .  1
   V  V15  1  0.368555  0.827066  0.846726  0  .  1
   V  V16  1  0.358366  0.822132  0.343201  0  .  1
   V  V17  1  0.334599  0.516165  0.681260  0  .  1
   V  V18  1  0.157350  0.342113  0.997315  0  .  1
   V  V19  1  0.146188  0.322527  0.488026  0  .  1
   V  V20  1  0.165796  0.982230  0.069404  0  .  1
   V  V21  1  0.131581  0.671105  0.904492  0  .  1
   V  V22  1  0.141116  0.675682  0.407191  0  .  1
   O  O23  1  0.963629  0.706885  0.341081  0  .  1
   O  O24  1  0.970784  0.684857  0.823241  0  .  1
   O  O25  1  0.851213  0.462421  0.912832  0  .  1
   O  O26  1  0.859224  0.453527  0.406181  0  .  1
   O  O27  1  0.828989  0.177333  0.770087  0  .  1
   O  O28  1  0.829712  0.181034  0.237645  0  .  1
   O  O29  1  0.785860  0.868411  0.064893  0  .  1
   O  O30  1  0.786672  0.856072  0.584140  0  .  1
   O  O31  1  0.713638  0.642867  0.166320  0  .  1
   O  O32  1  0.713013  0.631448  0.685338  0  .  1
   O  O33  1  0.670111  0.322417  0.980510  0  .  1
   O  O34  1  0.669467  0.317943  0.510050  0  .  1
   O  O35  1  0.648129  0.035835  0.836998  0  .  1
   O  O36  1  0.641486  0.045900  0.347546  0  .  1
   O  O37  1  0.528883  0.814618  0.930276  0  .  1
   O  O38  1  0.536458  0.791774  0.409573  0  .  1
   O  O39  1  0.500146  0.500141  0.753161  0  .  1
   O  O40  1  0.463525  0.206406  0.081284  0  .  1
   O  O41  1  0.470763  0.186767  0.587917  0  .  1
   O  O42  1  0.351494  0.962698  0.153016  0  .  1
   O  O43  1  0.359080  0.953014  0.658118  0  .  1
   O  O44  1  0.329159  0.677281  0.988784  0  .  1
   O  O45  1  0.329989  0.680114  0.524255  0  .  1
   O  O46  1  0.285756  0.367593  0.340439  0  .  1
   O  O47  1  0.286184  0.356449  0.810109  0  .  1
   O  O48  1  0.213786  0.142384  0.940461  0  .  1
   O  O49  1  0.213105  0.131028  0.409945  0  .  1
   O  O50  1  0.169764  0.818076  0.227067  0  .  1
   O  O51  1  0.170797  0.821283  0.762824  0  .  1
   O  O52  1  0.148486  0.535991  0.597631  0  .  1
   O  O53  1  0.140378  0.544896  0.091214  0  .  1
   O  O54  1  0.036404  0.291474  0.669360  0  .  1
   O  O55  1  0.028911  0.314095  0.165251  0  .  1
   O  O56  1  0.000285  0.999642  0.997818  0  .  1
 
