#\#CIF1.1
##########################################################################
#               Crystallographic Information Format file 
#               Produced by PyCifRW module
# 
#  This is a CIF file.  CIF has been adopted by the International
#  Union of Crystallography as the standard for data archiving and 
#  transmission.
#
#  For information on this file format, follow the CIF links at
#  http://www.iucr.org
##########################################################################

data_BaV13O18
_symmetry_space_group_name_H-M          'P 1'
_cell_length_a                          7.98197955559
_cell_length_b                          7.90108348227
_cell_length_c                          8.08203691384
_cell_angle_alpha                       112.080513226
_cell_angle_beta                        111.3800252
_cell_angle_gamma                       109.985496224
_chemical_name_systematic               'Generated by pymatgen'
_symmetry_Int_Tables_number             1
_chemical_formula_structural            BaV13O18
_chemical_formula_sum                   'Ba1 V13 O18'
_cell_volume                            365.889518618
_cell_formula_units_Z                   1
loop_
  _symmetry_equiv_pos_site_id
  _symmetry_equiv_pos_as_xyz
   1  'x, y, z'
 
loop_
  _atom_site_type_symbol
  _atom_site_label
  _atom_site_symmetry_multiplicity
  _atom_site_fract_x
  _atom_site_fract_y
  _atom_site_fract_z
  _atom_site_attached_hydrogens
  _atom_site_B_iso_or_equiv
  _atom_site_occupancy
   O  O1  1  0.065554  0.607722  0.388646  0  .  1
   O  O2  1  0.599900  0.383972  0.048289  0  .  1
   O  O3  1  0.382742  0.065345  0.605994  0  .  1
   O  O4  1  0.934362  0.392235  0.611432  0  .  1
   O  O5  1  0.400070  0.616051  0.951727  0  .  1
   O  O6  1  0.617333  0.934779  0.394032  0  .  1
   O  O7  1  0.163540  0.737440  0.104417  0  .  1
   O  O8  1  0.717117  0.085866  0.158047  0  .  1
   O  O9  1  0.101388  0.161835  0.716722  0  .  1
   O  O10  1  0.836487  0.262463  0.895463  0  .  1
   O  O11  1  0.282895  0.914179  0.841953  0  .  1
   O  O12  1  0.898642  0.838249  0.283331  0  .  1
   O  O13  1  0.790471  0.690075  0.520142  0  .  1
   O  O14  1  0.680361  0.511641  0.785082  0  .  1
   O  O15  1  0.478304  0.202037  0.313205  0  .  1
   O  O16  1  0.319682  0.488257  0.214825  0  .  1
   O  O17  1  0.209544  0.309990  0.479893  0  .  1
   O  O18  1  0.521672  0.797939  0.686861  0  .  1
   V  V19  1  0.348237  0.772925  0.399966  0  .  1
   V  V20  1  0.758023  0.395533  0.335956  0  .  1
   V  V21  1  0.394859  0.350885  0.757039  0  .  1
   V  V22  1  0.651747  0.227056  0.600034  0  .  1
   V  V23  1  0.241941  0.604476  0.664079  0  .  1
   V  V24  1  0.605160  0.649172  0.242983  0  .  1
   V  V25  1  0.112775  0.432577  0.918780  0  .  1
   V  V26  1  0.428931  0.918094  0.121407  0  .  1
   V  V27  1  0.914289  0.118718  0.426989  0  .  1
   V  V28  1  0.887258  0.567387  0.081282  0  .  1
   V  V29  1  0.571109  0.081967  0.878618  0  .  1
   V  V30  1  0.085741  0.881332  0.572995  0  .  1
   V  V31  1  0.499963  0.499977  0.499963  0  .  1
   Ba  Ba32  1  0.999904  0.999826  0.999847  0  .  1
 
