#\#CIF1.1
##########################################################################
#               Crystallographic Information Format file 
#               Produced by PyCifRW module
# 
#  This is a CIF file.  CIF has been adopted by the International
#  Union of Crystallography as the standard for data archiving and 
#  transmission.
#
#  For information on this file format, follow the CIF links at
#  http://www.iucr.org
##########################################################################

data_BaV4O9
_symmetry_space_group_name_H-M          'P 1'
_cell_length_a                          5.09330014
_cell_length_b                          7.93985379185
_cell_length_c                          9.45394352142
_cell_angle_alpha                       110.466715309
_cell_angle_beta                        90.0
_cell_angle_gamma                       90.0
_chemical_name_systematic               'Generated by pymatgen'
_symmetry_Int_Tables_number             1
_chemical_formula_structural            BaV4O9
_chemical_formula_sum                   'Ba2 V8 O18'
_cell_volume                            358.184384939
_cell_formula_units_Z                   2
loop_
  _symmetry_equiv_pos_site_id
  _symmetry_equiv_pos_as_xyz
   1  'x, y, z'
 
loop_
  _atom_site_type_symbol
  _atom_site_label
  _atom_site_symmetry_multiplicity
  _atom_site_fract_x
  _atom_site_fract_y
  _atom_site_fract_z
  _atom_site_attached_hydrogens
  _atom_site_B_iso_or_equiv
  _atom_site_occupancy
   O  O1  1  0.043072  0.500000  0.250001  0  .  1
   O  O2  1  0.956929  0.500000  0.750000  0  .  1
   O  O3  1  0.904766  0.334669  0.968522  0  .  1
   O  O4  1  0.904766  0.665331  0.531478  0  .  1
   O  O5  1  0.095235  0.665332  0.031478  0  .  1
   O  O6  1  0.095235  0.334668  0.468522  0  .  1
   O  O7  1  0.421960  0.423724  0.857730  0  .  1
   O  O8  1  0.421960  0.576275  0.642269  0  .  1
   O  O9  1  0.578041  0.576275  0.142270  0  .  1
   O  O10  1  0.578041  0.423724  0.357730  0  .  1
   O  O11  1  0.146233  0.112942  0.656999  0  .  1
   O  O12  1  0.146233  0.887059  0.843002  0  .  1
   O  O13  1  0.853768  0.887059  0.343002  0  .  1
   O  O14  1  0.853768  0.112940  0.156998  0  .  1
   O  O15  1  0.405836  0.238840  0.060046  0  .  1
   O  O16  1  0.594165  0.761160  0.939955  0  .  1
   O  O17  1  0.405836  0.761160  0.439954  0  .  1
   O  O18  1  0.594165  0.238840  0.560046  0  .  1
   V  V19  1  0.751530  0.311771  0.155339  0  .  1
   V  V20  1  0.751530  0.688229  0.344661  0  .  1
   V  V21  1  0.248471  0.688229  0.844662  0  .  1
   V  V22  1  0.248471  0.311771  0.655338  0  .  1
   V  V23  1  0.247510  0.435131  0.051552  0  .  1
   V  V24  1  0.752489  0.435131  0.551552  0  .  1
   V  V25  1  0.752489  0.564868  0.948448  0  .  1
   V  V26  1  0.247510  0.564868  0.448448  0  .  1
   Ba  Ba27  1  0.310922  0.000001  0.250000  0  .  1
   Ba  Ba28  1  0.689079  0.000000  0.750001  0  .  1
 
