#\#CIF1.1
##########################################################################
#               Crystallographic Information Format file 
#               Produced by PyCifRW module
# 
#  This is a CIF file.  CIF has been adopted by the International
#  Union of Crystallography as the standard for data archiving and 
#  transmission.
#
#  For information on this file format, follow the CIF links at
#  http://www.iucr.org
##########################################################################

data_BaV6O11
_symmetry_space_group_name_H-M          'P 1'
_cell_length_a                          5.95874760344
_cell_length_b                          5.95874759659
_cell_length_c                          13.54160717
_cell_angle_alpha                       90.0
_cell_angle_beta                        90.0
_cell_angle_gamma                       120.339641486
_chemical_name_systematic               'Generated by pymatgen'
_symmetry_Int_Tables_number             1
_chemical_formula_structural            BaV6O11
_chemical_formula_sum                   'Ba2 V12 O22'
_cell_volume                            414.967680443
_cell_formula_units_Z                   2
loop_
  _symmetry_equiv_pos_site_id
  _symmetry_equiv_pos_as_xyz
   1  'x, y, z'
 
loop_
  _atom_site_type_symbol
  _atom_site_label
  _atom_site_symmetry_multiplicity
  _atom_site_fract_x
  _atom_site_fract_y
  _atom_site_fract_z
  _atom_site_attached_hydrogens
  _atom_site_B_iso_or_equiv
  _atom_site_occupancy
   O  O1  1  0.672747  0.327253  0.086884  0  .  1
   O  O2  1  0.327253  0.672747  0.586884  0  .  1
   O  O3  1  0.672778  0.327222  0.419150  0  .  1
   O  O4  1  0.327222  0.672778  0.919150  0  .  1
   O  O5  1  0.850347  0.707262  0.253027  0  .  1
   O  O6  1  0.152382  0.847618  0.753011  0  .  1
   O  O7  1  0.707262  0.850347  0.753027  0  .  1
   O  O8  1  0.292738  0.149653  0.253027  0  .  1
   O  O9  1  0.847618  0.152382  0.253011  0  .  1
   O  O10  1  0.149653  0.292738  0.753027  0  .  1
   O  O11  1  0.833408  0.651317  0.580188  0  .  1
   O  O12  1  0.174740  0.825260  0.078916  0  .  1
   O  O13  1  0.651317  0.833408  0.080188  0  .  1
   O  O14  1  0.348683  0.166592  0.580188  0  .  1
   O  O15  1  0.166613  0.348646  0.425836  0  .  1
   O  O16  1  0.825234  0.174766  0.927132  0  .  1
   O  O17  1  0.348646  0.166613  0.925836  0  .  1
   O  O18  1  0.651354  0.833387  0.425836  0  .  1
   O  O19  1  0.174766  0.825234  0.427132  0  .  1
   O  O20  1  0.833387  0.651354  0.925836  0  .  1
   O  O21  1  0.166592  0.348683  0.080188  0  .  1
   O  O22  1  0.825260  0.174740  0.578916  0  .  1
   V  V23  1  0.665529  0.334471  0.253006  0  .  1
   V  V24  1  0.334471  0.665529  0.753006  0  .  1
   V  V25  1  0.003697  -0.003697  0.649679  0  .  1
   V  V26  1  -0.003697  0.003697  0.149679  0  .  1
   V  V27  1  0.003690  -0.003690  0.856351  0  .  1
   V  V28  1  -0.003690  0.003690  0.356351  0  .  1
   V  V29  1  0.499990  0.000011  0.003014  0  .  1
   V  V30  1  0.500014  0.499986  0.503013  0  .  1
   V  V31  1  0.000011  0.499990  0.503014  0  .  1
   V  V32  1  0.999989  0.500010  0.003014  0  .  1
   V  V33  1  0.499986  0.500014  0.003013  0  .  1
   V  V34  1  0.500010  0.999989  0.503014  0  .  1
   Ba  Ba35  1  0.670111  0.329889  0.753028  0  .  1
   Ba  Ba36  1  0.329889  0.670111  0.253028  0  .  1
 
