#\#CIF1.1
##########################################################################
#               Crystallographic Information Format file 
#               Produced by PyCifRW module
# 
#  This is a CIF file.  CIF has been adopted by the International
#  Union of Crystallography as the standard for data archiving and 
#  transmission.
#
#  For information on this file format, follow the CIF links at
#  http://www.iucr.org
##########################################################################

data_BaV8O21
_symmetry_space_group_name_H-M          'P 1'
_cell_length_a                          7.85129925401
_cell_length_b                          7.21520980286
_cell_length_c                          15.1773880276
_cell_angle_alpha                       90.0276446617
_cell_angle_beta                        90.2333625182
_cell_angle_gamma                       76.6968010311
_chemical_name_systematic               'Generated by pymatgen'
_symmetry_Int_Tables_number             1
_chemical_formula_structural            BaV8O21
_chemical_formula_sum                   'Ba2 V16 O42'
_cell_volume                            836.702028986
_cell_formula_units_Z                   2
loop_
  _symmetry_equiv_pos_site_id
  _symmetry_equiv_pos_as_xyz
   1  'x, y, z'
 
loop_
  _atom_site_type_symbol
  _atom_site_label
  _atom_site_symmetry_multiplicity
  _atom_site_fract_x
  _atom_site_fract_y
  _atom_site_fract_z
  _atom_site_attached_hydrogens
  _atom_site_B_iso_or_equiv
  _atom_site_occupancy
   Ba  Ba1  1  0.045951  0.738663  0.311920  0  .  1
   Ba  Ba2  1  0.954049  0.261337  0.688080  0  .  1
   V  V3  1  0.183953  0.454038  0.925580  0  .  1
   V  V4  1  0.183880  0.954077  0.925254  0  .  1
   V  V5  1  0.337980  0.416067  0.523422  0  .  1
   V  V6  1  0.338522  0.914853  0.523940  0  .  1
   V  V7  1  0.372582  0.156786  0.071167  0  .  1
   V  V8  1  0.373162  0.656928  0.071042  0  .  1
   V  V9  1  0.384185  0.406546  0.731878  0  .  1
   V  V10  1  0.384307  0.903785  0.732518  0  .  1
   V  V11  1  0.615693  0.096215  0.267482  0  .  1
   V  V12  1  0.615815  0.593454  0.268122  0  .  1
   V  V13  1  0.626838  0.343072  0.928958  0  .  1
   V  V14  1  0.627418  0.843214  0.928833  0  .  1
   V  V15  1  0.662020  0.583933  0.476578  0  .  1
   V  V16  1  0.661478  0.085147  0.476060  0  .  1
   V  V17  1  0.816120  0.045923  0.074746  0  .  1
   V  V18  1  0.816047  0.545962  0.074420  0  .  1
   O  O19  1  0.000000  0.000000  0.000000  0  .  1
   O  O20  1  0.000000  0.500000  0.000000  0  .  1
   O  O21  1  0.096471  0.471163  0.826305  0  .  1
   O  O22  1  0.095264  0.981044  0.826276  0  .  1
   O  O23  1  0.184907  0.459610  0.448067  0  .  1
   O  O24  1  0.185666  0.947442  0.448353  0  .  1
   O  O25  1  0.217242  0.195988  0.142071  0  .  1
   O  O26  1  0.217443  0.695449  0.143991  0  .  1
   O  O27  1  0.236050  0.191080  0.952465  0  .  1
   O  O28  1  0.236059  0.690878  0.952249  0  .  1
   O  O29  1  0.232118  0.946679  0.627330  0  .  1
   O  O30  1  0.232303  0.437025  0.626981  0  .  1
   O  O31  1  0.335246  0.663787  0.741809  0  .  1
   O  O32  1  0.326261  0.169770  0.741952  0  .  1
   O  O33  1  0.387272  0.403994  0.032823  0  .  1
   O  O34  1  0.386285  0.902698  0.033384  0  .  1
   O  O35  1  0.419683  0.644726  0.529542  0  .  1
   O  O36  1  0.419152  0.145552  0.528235  0  .  1
   O  O37  1  0.422562  0.144030  0.310099  0  .  1
   O  O38  1  0.418115  0.645786  0.309750  0  .  1
   O  O39  1  0.431997  0.391423  0.860682  0  .  1
   O  O40  1  0.430241  0.892163  0.860463  0  .  1
   O  O41  1  0.568003  0.608577  0.139318  0  .  1
   O  O42  1  0.569759  0.107837  0.139537  0  .  1
   O  O43  1  0.577438  0.855970  0.689901  0  .  1
   O  O44  1  0.581885  0.354214  0.690250  0  .  1
   O  O45  1  0.580317  0.355274  0.470458  0  .  1
   O  O46  1  0.580848  0.854449  0.471765  0  .  1
   O  O47  1  0.612728  0.596006  0.967177  0  .  1
   O  O48  1  0.613715  0.097302  0.966616  0  .  1
   O  O49  1  0.664754  0.336213  0.258191  0  .  1
   O  O50  1  0.673739  0.830230  0.258048  0  .  1
   O  O51  1  0.767697  0.562975  0.373019  0  .  1
   O  O52  1  0.767882  0.053321  0.372670  0  .  1
   O  O53  1  0.763950  0.808920  0.047535  0  .  1
   O  O54  1  0.763941  0.309122  0.047751  0  .  1
   O  O55  1  0.782758  0.804012  0.857929  0  .  1
   O  O56  1  0.782557  0.304551  0.856009  0  .  1
   O  O57  1  0.814334  0.052558  0.551647  0  .  1
   O  O58  1  0.815093  0.540390  0.551933  0  .  1
   O  O59  1  0.904736  0.018956  0.173724  0  .  1
   O  O60  1  0.903529  0.528837  0.173695  0  .  1
 
