#\#CIF1.1
##########################################################################
#               Crystallographic Information Format file 
#               Produced by PyCifRW module
# 
#  This is a CIF file.  CIF has been adopted by the International
#  Union of Crystallography as the standard for data archiving and 
#  transmission.
#
#  For information on this file format, follow the CIF links at
#  http://www.iucr.org
##########################################################################

data_BaV8O16
_symmetry_space_group_name_H-M          'P 1'
_cell_length_a                          7.40060873109
_cell_length_b                          5.78019315609
_cell_length_c                          7.39737301562
_cell_angle_alpha                       101.253551846
_cell_angle_beta                        92.1912129959
_cell_angle_gamma                       78.7288875091
_chemical_name_systematic               'Generated by pymatgen'
_symmetry_Int_Tables_number             1
_chemical_formula_structural            BaV8O16
_chemical_formula_sum                   'Ba1 V8 O16'
_cell_volume                            304.36728612
_cell_formula_units_Z                   1
loop_
  _symmetry_equiv_pos_site_id
  _symmetry_equiv_pos_as_xyz
   1  'x, y, z'
 
loop_
  _atom_site_type_symbol
  _atom_site_label
  _atom_site_symmetry_multiplicity
  _atom_site_fract_x
  _atom_site_fract_y
  _atom_site_fract_z
  _atom_site_attached_hydrogens
  _atom_site_B_iso_or_equiv
  _atom_site_occupancy
   Ba  Ba1  1  0.999445  0.787682  0.000081  0  .  1
   V  V2  1  0.518275  0.918715  0.185132  0  .  1
   V  V3  1  0.525690  0.416048  0.181953  0  .  1
   V  V4  1  0.815008  0.677123  0.517282  0  .  1
   V  V5  1  0.818166  0.179515  0.526730  0  .  1
   V  V6  1  0.184765  0.824934  0.481850  0  .  1
   V  V7  1  0.182194  0.326037  0.474007  0  .  1
   V  V8  1  0.483159  0.584589  0.815532  0  .  1
   V  V9  1  0.472888  0.088850  0.817438  0  .  1
   O  O10  1  0.646788  0.604956  0.044651  0  .  1
   O  O11  1  0.645094  0.098738  0.043610  0  .  1
   O  O12  1  0.706215  0.920408  0.374395  0  .  1
   O  O13  1  0.703787  0.418811  0.377621  0  .  1
   O  O14  1  0.955913  0.922428  0.647288  0  .  1
   O  O15  1  0.956035  0.427535  0.644594  0  .  1
   O  O16  1  0.374534  0.730807  0.294494  0  .  1
   O  O17  1  0.377268  0.232704  0.295191  0  .  1
   O  O18  1  0.625392  0.773586  0.706110  0  .  1
   O  O19  1  0.622994  0.270144  0.704197  0  .  1
   O  O20  1  0.043872  0.582622  0.353219  0  .  1
   O  O21  1  0.044147  0.076780  0.354722  0  .  1
   O  O22  1  0.294795  0.583857  0.625895  0  .  1
   O  O23  1  0.295218  0.084406  0.622185  0  .  1
   O  O24  1  0.355715  0.405553  0.955984  0  .  1
   O  O25  1  0.352643  0.900595  0.955838  0  .  1
 
