#\#CIF1.1
##########################################################################
#               Crystallographic Information Format file 
#               Produced by PyCifRW module
# 
#  This is a CIF file.  CIF has been adopted by the International
#  Union of Crystallography as the standard for data archiving and 
#  transmission.
#
#  For information on this file format, follow the CIF links at
#  http://www.iucr.org
##########################################################################

data_BaVSe3
_symmetry_space_group_name_H-M          'P 1'
_cell_length_a                          5.9021942
_cell_length_b                          7.10297581168
_cell_length_c                          7.03591971455
_cell_angle_alpha                       120.320062866
_cell_angle_beta                        90.0
_cell_angle_gamma                       90.0
_chemical_name_systematic               'Generated by pymatgen'
_symmetry_Int_Tables_number             1
_chemical_formula_structural            BaVSe3
_chemical_formula_sum                   'Ba2 V2 Se6'
_cell_volume                            254.621816207
_cell_formula_units_Z                   2
loop_
  _symmetry_equiv_pos_site_id
  _symmetry_equiv_pos_as_xyz
   1  'x, y, z'
 
loop_
  _atom_site_type_symbol
  _atom_site_label
  _atom_site_symmetry_multiplicity
  _atom_site_fract_x
  _atom_site_fract_y
  _atom_site_fract_z
  _atom_site_attached_hydrogens
  _atom_site_B_iso_or_equiv
  _atom_site_occupancy
   Ba  Ba1  1  0.754951  0.336128  0.672244  0  .  1
   Ba  Ba2  1  0.254951  0.663872  0.327756  0  .  1
   V  V3  1  0.013237  0.025805  0.051679  0  .  1
   V  V4  1  0.513237  0.974195  0.948321  0  .  1
   Se  Se5  1  0.243081  0.163457  0.833490  0  .  1
   Se  Se6  1  0.243113  0.670010  0.833499  0  .  1
   Se  Se7  1  0.274618  0.170752  0.341446  0  .  1
   Se  Se8  1  0.743113  0.329990  0.166501  0  .  1
   Se  Se9  1  0.743081  0.836543  0.166510  0  .  1
   Se  Se10  1  0.774618  0.829248  0.658554  0  .  1
 
