#\#CIF1.1
##########################################################################
#               Crystallographic Information Format file 
#               Produced by PyCifRW module
# 
#  This is a CIF file.  CIF has been adopted by the International
#  Union of Crystallography as the standard for data archiving and 
#  transmission.
#
#  For information on this file format, follow the CIF links at
#  http://www.iucr.org
##########################################################################

data_BaVS3
_symmetry_space_group_name_H-M          'P 1'
_cell_length_a                          6.83732570547
_cell_length_b                          8.79610852841
_cell_length_c                          8.81395429433
_cell_angle_alpha                       79.6377243859
_cell_angle_beta                        67.1780145402
_cell_angle_gamma                       67.1290852699
_chemical_name_systematic               'Generated by pymatgen'
_symmetry_Int_Tables_number             1
_chemical_formula_structural            BaVS3
_chemical_formula_sum                   'Ba4 V4 S12'
_cell_volume                            449.913055393
_cell_formula_units_Z                   4
loop_
  _symmetry_equiv_pos_site_id
  _symmetry_equiv_pos_as_xyz
   1  'x, y, z'
 
loop_
  _atom_site_type_symbol
  _atom_site_label
  _atom_site_symmetry_multiplicity
  _atom_site_fract_x
  _atom_site_fract_y
  _atom_site_fract_z
  _atom_site_attached_hydrogens
  _atom_site_B_iso_or_equiv
  _atom_site_occupancy
   Ba  Ba1  1  0.336031  0.539583  0.788354  0  .  1
   Ba  Ba2  1  0.663032  0.958877  0.715060  0  .  1
   Ba  Ba3  1  0.333083  0.037664  0.296169  0  .  1
   Ba  Ba4  1  0.657229  0.467291  0.218250  0  .  1
   V  V5  1  0.973593  0.784619  0.268196  0  .  1
   V  V6  1  0.022321  0.482812  0.472547  0  .  1
   V  V7  1  0.973235  0.275094  0.778437  0  .  1
   V  V8  1  0.018933  0.983779  0.978355  0  .  1
   S  S9  1  0.828037  0.055549  0.288377  0  .  1
   S  S10  1  0.166972  0.461591  0.204464  0  .  1
   S  S11  1  0.826016  0.546050  0.801918  0  .  1
   S  S12  1  0.165959  0.961316  0.706766  0  .  1
   S  S13  1  0.318693  0.790723  0.052516  0  .  1
   S  S14  1  0.838067  0.790723  0.052516  0  .  1
   S  S15  1  0.677414  0.704860  0.464394  0  .  1
   S  S16  1  0.153332  0.704860  0.464394  0  .  1
   S  S17  1  0.316762  0.291267  0.552280  0  .  1
   S  S18  1  0.839691  0.291267  0.552280  0  .  1
   S  S19  1  0.673801  0.201487  0.962513  0  .  1
   S  S20  1  0.162199  0.201487  0.962513  0  .  1
 
