#\#CIF1.1
##########################################################################
#               Crystallographic Information Format file 
#               Produced by PyCifRW module
# 
#  This is a CIF file.  CIF has been adopted by the International
#  Union of Crystallography as the standard for data archiving and 
#  transmission.
#
#  For information on this file format, follow the CIF links at
#  http://www.iucr.org
##########################################################################

data_BaZnO2
_symmetry_space_group_name_H-M          'P 1'
_cell_length_a                          5.97230086
_cell_length_b                          5.97230085671
_cell_length_c                          6.826996
_cell_angle_alpha                       90.0
_cell_angle_beta                        90.0
_cell_angle_gamma                       120.000000018
_chemical_name_systematic               'Generated by pymatgen'
_symmetry_Int_Tables_number             1
_chemical_formula_structural            BaZnO2
_chemical_formula_sum                   'Ba3 Zn3 O6'
_cell_volume                            210.884002104
_cell_formula_units_Z                   3
loop_
  _symmetry_equiv_pos_site_id
  _symmetry_equiv_pos_as_xyz
   1  'x, y, z'
 
loop_
  _atom_site_type_symbol
  _atom_site_label
  _atom_site_symmetry_multiplicity
  _atom_site_fract_x
  _atom_site_fract_y
  _atom_site_fract_z
  _atom_site_attached_hydrogens
  _atom_site_B_iso_or_equiv
  _atom_site_occupancy
   O  O1  1  0.123916  0.421197  0.876173  0  .  1
   O  O2  1  0.578803  0.702719  0.209506  0  .  1
   O  O3  1  0.297281  0.876084  0.542840  0  .  1
   O  O4  1  0.702719  0.578803  0.790494  0  .  1
   O  O5  1  0.421197  0.123916  0.123827  0  .  1
   O  O6  1  0.876084  0.297281  0.457160  0  .  1
   Zn  Zn7  1  0.415945  0.415945  0.000000  0  .  1
   Zn  Zn8  1  0.000000  0.584055  0.666667  0  .  1
   Zn  Zn9  1  0.584055  0.000000  0.333333  0  .  1
   Ba  Ba10  1  0.653959  0.000000  0.833333  0  .  1
   Ba  Ba11  1  0.000000  0.653959  0.166667  0  .  1
   Ba  Ba12  1  0.346041  0.346041  0.500000  0  .  1
 
