#\#CIF1.1
##########################################################################
#               Crystallographic Information Format file 
#               Produced by PyCifRW module
# 
#  This is a CIF file.  CIF has been adopted by the International
#  Union of Crystallography as the standard for data archiving and 
#  transmission.
#
#  For information on this file format, follow the CIF links at
#  http://www.iucr.org
##########################################################################

data_BaZrN2
_symmetry_space_group_name_H-M          'P 1'
_cell_length_a                          4.20427845
_cell_length_b                          4.20427845
_cell_length_c                          8.48689969
_cell_angle_alpha                       90.0
_cell_angle_beta                        90.0
_cell_angle_gamma                       90.0
_chemical_name_systematic               'Generated by pymatgen'
_symmetry_Int_Tables_number             1
_chemical_formula_structural            BaZrN2
_chemical_formula_sum                   'Ba2 Zr2 N4'
_cell_volume                            150.014076404
_cell_formula_units_Z                   2
loop_
  _symmetry_equiv_pos_site_id
  _symmetry_equiv_pos_as_xyz
   1  'x, y, z'
 
loop_
  _atom_site_type_symbol
  _atom_site_label
  _atom_site_symmetry_multiplicity
  _atom_site_fract_x
  _atom_site_fract_y
  _atom_site_fract_z
  _atom_site_attached_hydrogens
  _atom_site_B_iso_or_equiv
  _atom_site_occupancy
   N  N1  1  0.750000  0.750000  0.824512  0  .  1
   N  N2  1  0.250000  0.250000  0.175488  0  .  1
   N  N3  1  0.750000  0.250000  0.500000  0  .  1
   N  N4  1  0.250000  0.750000  0.500000  0  .  1
   Zr  Zr5  1  0.250000  0.250000  0.412862  0  .  1
   Zr  Zr6  1  0.750000  0.750000  0.587138  0  .  1
   Ba  Ba7  1  0.750000  0.750000  0.152583  0  .  1
   Ba  Ba8  1  0.250000  0.250000  0.847417  0  .  1
 
