#\#CIF1.1
##########################################################################
#               Crystallographic Information Format file 
#               Produced by PyCifRW module
# 
#  This is a CIF file.  CIF has been adopted by the International
#  Union of Crystallography as the standard for data archiving and 
#  transmission.
#
#  For information on this file format, follow the CIF links at
#  http://www.iucr.org
##########################################################################

data_Be(FeO2)2
_symmetry_space_group_name_H-M          'P 1'
_cell_length_a                          9.47654571815
_cell_length_b                          9.88509862834
_cell_length_c                          3.05906888
_cell_angle_alpha                       90.0000277248
_cell_angle_beta                        90.000075011
_cell_angle_gamma                       90.0047296098
_chemical_name_systematic               'Generated by pymatgen'
_symmetry_Int_Tables_number             1
_chemical_formula_structural            Be(FeO2)2
_chemical_formula_sum                   'Be4 Fe8 O16'
_cell_volume                            286.563137462
_cell_formula_units_Z                   4
loop_
  _symmetry_equiv_pos_site_id
  _symmetry_equiv_pos_as_xyz
   1  'x, y, z'
 
loop_
  _atom_site_type_symbol
  _atom_site_label
  _atom_site_symmetry_multiplicity
  _atom_site_fract_x
  _atom_site_fract_y
  _atom_site_fract_z
  _atom_site_attached_hydrogens
  _atom_site_B_iso_or_equiv
  _atom_site_occupancy
   Be  Be1  1  0.162140  0.379677  0.749999  0  .  1
   Be  Be2  1  0.337851  0.879691  0.250001  0  .  1
   Be  Be3  1  0.662136  0.120312  0.750000  0  .  1
   Be  Be4  1  0.837861  0.620313  0.250001  0  .  1
   Fe  Fe5  1  0.112367  0.692656  0.749999  0  .  1
   Fe  Fe6  1  0.120540  0.070625  0.749997  0  .  1
   Fe  Fe7  1  0.379460  0.570618  0.250002  0  .  1
   Fe  Fe8  1  0.387636  0.192650  0.250003  0  .  1
   Fe  Fe9  1  0.612369  0.807340  0.749996  0  .  1
   Fe  Fe10  1  0.620542  0.429368  0.750003  0  .  1
   Fe  Fe11  1  0.879466  0.929378  0.250006  0  .  1
   Fe  Fe12  1  0.887634  0.307347  0.249992  0  .  1
   O  O13  1  0.016045  0.884153  0.750001  0  .  1
   O  O14  1  0.001888  0.367267  0.749999  0  .  1
   O  O15  1  0.254978  0.743903  0.250001  0  .  1
   O  O16  1  0.243013  0.516782  0.749999  0  .  1
   O  O17  1  0.256984  0.016781  0.250000  0  .  1
   O  O18  1  0.245014  0.243908  0.750000  0  .  1
   O  O19  1  0.498113  0.867275  0.250001  0  .  1
   O  O20  1  0.483947  0.384151  0.249999  0  .  1
   O  O21  1  0.516050  0.615843  0.750000  0  .  1
   O  O22  1  0.501886  0.132738  0.750000  0  .  1
   O  O23  1  0.755002  0.756095  0.250001  0  .  1
   O  O24  1  0.743024  0.983227  0.749999  0  .  1
   O  O25  1  0.756983  0.483218  0.250000  0  .  1
   O  O26  1  0.745014  0.256098  0.750000  0  .  1
   O  O27  1  0.998108  0.632733  0.249999  0  .  1
   O  O28  1  0.983948  0.115852  0.250000  0  .  1
 
