#\#CIF1.1
##########################################################################
#               Crystallographic Information Format file 
#               Produced by PyCifRW module
# 
#  This is a CIF file.  CIF has been adopted by the International
#  Union of Crystallography as the standard for data archiving and 
#  transmission.
#
#  For information on this file format, follow the CIF links at
#  http://www.iucr.org
##########################################################################

data_BeCrO4
_symmetry_space_group_name_H-M          'P 1'
_cell_length_a                          7.16479177053
_cell_length_b                          7.16479177053
_cell_length_c                          5.72091329694
_cell_angle_alpha                       77.741237331
_cell_angle_beta                        102.258762669
_cell_angle_gamma                       98.5821556381
_chemical_name_systematic               'Generated by pymatgen'
_symmetry_Int_Tables_number             1
_chemical_formula_structural            BeCrO4
_chemical_formula_sum                   'Be4 Cr4 O16'
_cell_volume                            278.766067117
_cell_formula_units_Z                   4
loop_
  _symmetry_equiv_pos_site_id
  _symmetry_equiv_pos_as_xyz
   1  'x, y, z'
 
loop_
  _atom_site_type_symbol
  _atom_site_label
  _atom_site_symmetry_multiplicity
  _atom_site_fract_x
  _atom_site_fract_y
  _atom_site_fract_z
  _atom_site_attached_hydrogens
  _atom_site_B_iso_or_equiv
  _atom_site_occupancy
   Be  Be1  1  0.113476  0.886524  0.793312  0  .  1
   Be  Be2  1  0.248750  0.248750  0.500000  0  .  1
   Be  Be3  1  0.751250  0.751250  0.500000  0  .  1
   Be  Be4  1  0.886524  0.113476  0.206688  0  .  1
   Cr  Cr5  1  0.279715  0.720285  0.386820  0  .  1
   Cr  Cr6  1  0.238448  0.238448  0.000000  0  .  1
   Cr  Cr7  1  0.761552  0.761552  0.000000  0  .  1
   Cr  Cr8  1  0.720285  0.279715  0.613180  0  .  1
   O  O9  1  0.191373  0.808627  0.583062  0  .  1
   O  O10  1  0.184601  0.815399  0.095962  0  .  1
   O  O11  1  0.218209  0.461183  0.905634  0  .  1
   O  O12  1  0.538817  0.781791  0.905634  0  .  1
   O  O13  1  0.516541  0.771020  0.436296  0  .  1
   O  O14  1  0.228980  0.483459  0.436296  0  .  1
   O  O15  1  0.875406  0.831093  0.741638  0  .  1
   O  O16  1  0.168907  0.124594  0.741638  0  .  1
   O  O17  1  0.124594  0.168907  0.258362  0  .  1
   O  O18  1  0.831093  0.875406  0.258362  0  .  1
   O  O19  1  0.483459  0.228980  0.563704  0  .  1
   O  O20  1  0.771020  0.516541  0.563704  0  .  1
   O  O21  1  0.461183  0.218209  0.094366  0  .  1
   O  O22  1  0.781791  0.538817  0.094366  0  .  1
   O  O23  1  0.815399  0.184601  0.904038  0  .  1
   O  O24  1  0.808627  0.191373  0.416938  0  .  1
 
