#\#CIF1.1
##########################################################################
#               Crystallographic Information Format file 
#               Produced by PyCifRW module
# 
#  This is a CIF file.  CIF has been adopted by the International
#  Union of Crystallography as the standard for data archiving and 
#  transmission.
#
#  For information on this file format, follow the CIF links at
#  http://www.iucr.org
##########################################################################

data_BiI3
_symmetry_space_group_name_H-M          'P 1'
_cell_length_a                          8.9263386164
_cell_length_b                          8.92633861401
_cell_length_c                          8.92633861253
_cell_angle_alpha                       52.0633022553
_cell_angle_beta                        52.063302297
_cell_angle_gamma                       52.0633022219
_chemical_name_systematic               'Generated by pymatgen'
_symmetry_Int_Tables_number             1
_chemical_formula_structural            BiI3
_chemical_formula_sum                   'Bi2 I6'
_cell_volume                            409.099273192
_cell_formula_units_Z                   2
loop_
  _symmetry_equiv_pos_site_id
  _symmetry_equiv_pos_as_xyz
   1  'x, y, z'
 
loop_
  _atom_site_type_symbol
  _atom_site_label
  _atom_site_symmetry_multiplicity
  _atom_site_fract_x
  _atom_site_fract_y
  _atom_site_fract_z
  _atom_site_attached_hydrogens
  _atom_site_B_iso_or_equiv
  _atom_site_occupancy
   I  I1  1  0.923673  0.274965  0.564435  0  .  1
   I  I2  1  0.274965  0.564435  0.923673  0  .  1
   I  I3  1  0.435565  0.076327  0.725035  0  .  1
   I  I4  1  0.725035  0.435565  0.076327  0  .  1
   I  I5  1  0.076327  0.725035  0.435565  0  .  1
   I  I6  1  0.564435  0.923673  0.274965  0  .  1
   Bi  Bi7  1  0.666759  0.666759  0.666759  0  .  1
   Bi  Bi8  1  0.333241  0.333241  0.333241  0  .  1
 
