#\#CIF1.1
##########################################################################
#               Crystallographic Information Format file 
#               Produced by PyCifRW module
# 
#  This is a CIF file.  CIF has been adopted by the International
#  Union of Crystallography as the standard for data archiving and 
#  transmission.
#
#  For information on this file format, follow the CIF links at
#  http://www.iucr.org
##########################################################################

data_Ca(AlGa)2
_symmetry_space_group_name_H-M          'P 1'
_cell_length_a                          4.28730212422
_cell_length_b                          4.28730212165
_cell_length_c                          6.29730140013
_cell_angle_alpha                       109.901726701
_cell_angle_beta                        109.901726737
_cell_angle_gamma                       89.9999999362
_chemical_name_systematic               'Generated by pymatgen'
_symmetry_Int_Tables_number             1
_chemical_formula_structural            Ca(AlGa)2
_chemical_formula_sum                   'Ca1 Al2 Ga2'
_cell_volume                            101.454779729
_cell_formula_units_Z                   1
loop_
  _symmetry_equiv_pos_site_id
  _symmetry_equiv_pos_as_xyz
   1  'x, y, z'
 
loop_
  _atom_site_type_symbol
  _atom_site_label
  _atom_site_symmetry_multiplicity
  _atom_site_fract_x
  _atom_site_fract_y
  _atom_site_fract_z
  _atom_site_attached_hydrogens
  _atom_site_B_iso_or_equiv
  _atom_site_occupancy
   Al  Al1  1  0.250000  0.750000  0.500000  0  .  1
   Al  Al2  1  0.750000  0.250000  0.500000  0  .  1
   Ca  Ca3  1  0.000000  0.000000  0.000000  0  .  1
   Ga  Ga4  1  0.387075  0.387075  0.774151  0  .  1
   Ga  Ga5  1  0.612925  0.612925  0.225849  0  .  1
 
