#\#CIF1.1
##########################################################################
#               Crystallographic Information Format file 
#               Produced by PyCifRW module
# 
#  This is a CIF file.  CIF has been adopted by the International
#  Union of Crystallography as the standard for data archiving and 
#  transmission.
#
#  For information on this file format, follow the CIF links at
#  http://www.iucr.org
##########################################################################

data_Ca(CoO2)2
_symmetry_space_group_name_H-M          'P 1'
_cell_length_a                          3.0898357
_cell_length_b                          9.12601514
_cell_length_c                          10.45945754
_cell_angle_alpha                       90.0
_cell_angle_beta                        90.0
_cell_angle_gamma                       90.0
_chemical_name_systematic               'Generated by pymatgen'
_symmetry_Int_Tables_number             1
_chemical_formula_structural            Ca(CoO2)2
_chemical_formula_sum                   'Ca4 Co8 O16'
_cell_volume                            294.934605751
_cell_formula_units_Z                   4
loop_
  _symmetry_equiv_pos_site_id
  _symmetry_equiv_pos_as_xyz
   1  'x, y, z'
 
loop_
  _atom_site_type_symbol
  _atom_site_label
  _atom_site_symmetry_multiplicity
  _atom_site_fract_x
  _atom_site_fract_y
  _atom_site_fract_z
  _atom_site_attached_hydrogens
  _atom_site_B_iso_or_equiv
  _atom_site_occupancy
   O  O1  1  0.250000  0.911625  0.068833  0  .  1
   O  O2  1  0.749999  0.088374  0.931167  0  .  1
   O  O3  1  0.250000  0.411625  0.431167  0  .  1
   O  O4  1  0.749999  0.588375  0.568833  0  .  1
   O  O5  1  0.250000  0.019695  0.721229  0  .  1
   O  O6  1  0.749999  0.980304  0.278771  0  .  1
   O  O7  1  0.250000  0.519696  0.778771  0  .  1
   O  O8  1  0.749999  0.480304  0.221229  0  .  1
   O  O9  1  0.250000  0.612592  0.026168  0  .  1
   O  O10  1  0.749999  0.387409  0.973832  0  .  1
   O  O11  1  0.250000  0.112591  0.473832  0  .  1
   O  O12  1  0.749999  0.887408  0.526168  0  .  1
   O  O13  1  0.749999  0.786165  0.841436  0  .  1
   O  O14  1  0.250000  0.213835  0.158564  0  .  1
   O  O15  1  0.250000  0.713835  0.341436  0  .  1
   O  O16  1  0.749999  0.286164  0.658564  0  .  1
   Ca  Ca17  1  0.749999  0.239933  0.342324  0  .  1
   Ca  Ca18  1  0.250000  0.760068  0.657676  0  .  1
   Ca  Ca19  1  0.749999  0.739933  0.157676  0  .  1
   Ca  Ca20  1  0.250000  0.260068  0.842324  0  .  1
   Co  Co21  1  0.250000  0.416962  0.105550  0  .  1
   Co  Co22  1  0.749999  0.083038  0.605550  0  .  1
   Co  Co23  1  0.250000  0.916963  0.394450  0  .  1
   Co  Co24  1  0.749999  0.583038  0.894450  0  .  1
   Co  Co25  1  0.749999  0.559454  0.390151  0  .  1
   Co  Co26  1  0.250000  0.440546  0.609849  0  .  1
   Co  Co27  1  0.749999  0.059453  0.109849  0  .  1
   Co  Co28  1  0.250000  0.940546  0.890151  0  .  1
 
