#\#CIF1.1
##########################################################################
#               Crystallographic Information Format file 
#               Produced by PyCifRW module
# 
#  This is a CIF file.  CIF has been adopted by the International
#  Union of Crystallography as the standard for data archiving and 
#  transmission.
#
#  For information on this file format, follow the CIF links at
#  http://www.iucr.org
##########################################################################

data_Ca(FeP)2
_symmetry_space_group_name_H-M          'P 1'
_cell_length_a                          3.83001565435
_cell_length_b                          3.83001566008
_cell_length_c                          5.65959305003
_cell_angle_alpha                       109.777288298
_cell_angle_beta                        109.777288303
_cell_angle_gamma                       89.9999999563
_chemical_name_systematic               'Generated by pymatgen'
_symmetry_Int_Tables_number             1
_chemical_formula_structural            Ca(FeP)2
_chemical_formula_sum                   'Ca1 Fe2 P2'
_cell_volume                            72.8985111331
_cell_formula_units_Z                   1
loop_
  _symmetry_equiv_pos_site_id
  _symmetry_equiv_pos_as_xyz
   1  'x, y, z'
 
loop_
  _atom_site_type_symbol
  _atom_site_label
  _atom_site_symmetry_multiplicity
  _atom_site_fract_x
  _atom_site_fract_y
  _atom_site_fract_z
  _atom_site_attached_hydrogens
  _atom_site_B_iso_or_equiv
  _atom_site_occupancy
   P  P1  1  0.640747  0.640747  0.281493  0  .  1
   P  P2  1  0.359253  0.359253  0.718507  0  .  1
   Ca  Ca3  1  0.000000  0.000000  0.000000  0  .  1
   Fe  Fe4  1  0.750000  0.250000  0.500000  0  .  1
   Fe  Fe5  1  0.250000  0.750000  0.500000  0  .  1
 
