#\#CIF1.1
##########################################################################
#               Crystallographic Information Format file 
#               Produced by PyCifRW module
# 
#  This is a CIF file.  CIF has been adopted by the International
#  Union of Crystallography as the standard for data archiving and 
#  transmission.
#
#  For information on this file format, follow the CIF links at
#  http://www.iucr.org
##########################################################################

data_Ca(FeO2)2
_symmetry_space_group_name_H-M          'P 1'
_cell_length_a                          9.00840844
_cell_length_b                          8.96224755
_cell_length_c                          10.4140695
_cell_angle_alpha                       90.0
_cell_angle_beta                        90.0
_cell_angle_gamma                       90.0
_chemical_name_systematic               'Generated by pymatgen'
_symmetry_Int_Tables_number             1
_chemical_formula_structural            Ca(FeO2)2
_chemical_formula_sum                   'Ca12 Fe24 O48'
_cell_volume                            840.78600863
_cell_formula_units_Z                   12
loop_
  _symmetry_equiv_pos_site_id
  _symmetry_equiv_pos_as_xyz
   1  'x, y, z'
 
loop_
  _atom_site_type_symbol
  _atom_site_label
  _atom_site_symmetry_multiplicity
  _atom_site_fract_x
  _atom_site_fract_y
  _atom_site_fract_z
  _atom_site_attached_hydrogens
  _atom_site_B_iso_or_equiv
  _atom_site_occupancy
   Ca  Ca1  1  0.916737  0.241464  0.343079  0  .  1
   Ca  Ca2  1  0.583263  0.741464  0.156921  0  .  1
   Ca  Ca3  1  0.083263  0.258536  0.843079  0  .  1
   Ca  Ca4  1  0.250000  0.243316  0.342270  0  .  1
   Ca  Ca5  1  0.416737  0.258536  0.843079  0  .  1
   Ca  Ca6  1  0.583263  0.241464  0.343079  0  .  1
   Ca  Ca7  1  0.750000  0.256684  0.842270  0  .  1
   Ca  Ca8  1  0.416737  0.758536  0.656921  0  .  1
   Ca  Ca9  1  0.250000  0.743316  0.157730  0  .  1
   Ca  Ca10  1  0.083263  0.758536  0.656921  0  .  1
   Ca  Ca11  1  0.916737  0.741464  0.156921  0  .  1
   Ca  Ca12  1  0.750000  0.756684  0.657730  0  .  1
   Fe  Fe13  1  0.083345  0.919129  0.398396  0  .  1
   Fe  Fe14  1  0.916655  0.080871  0.601604  0  .  1
   Fe  Fe15  1  0.916559  0.561214  0.387416  0  .  1
   Fe  Fe16  1  0.583345  0.080871  0.601604  0  .  1
   Fe  Fe17  1  0.583441  0.561214  0.387416  0  .  1
   Fe  Fe18  1  0.250000  0.082354  0.601507  0  .  1
   Fe  Fe19  1  0.250000  0.562641  0.387588  0  .  1
   Fe  Fe20  1  0.750000  0.937359  0.887588  0  .  1
   Fe  Fe21  1  0.416559  0.438786  0.612584  0  .  1
   Fe  Fe22  1  0.583345  0.580871  0.898396  0  .  1
   Fe  Fe23  1  0.083441  0.938786  0.887416  0  .  1
   Fe  Fe24  1  0.416559  0.938786  0.887416  0  .  1
   Fe  Fe25  1  0.916655  0.580871  0.898396  0  .  1
   Fe  Fe26  1  0.416655  0.419129  0.101604  0  .  1
   Fe  Fe27  1  0.250000  0.582354  0.898493  0  .  1
   Fe  Fe28  1  0.916559  0.061214  0.112584  0  .  1
   Fe  Fe29  1  0.750000  0.417646  0.101507  0  .  1
   Fe  Fe30  1  0.583441  0.061214  0.112584  0  .  1
   Fe  Fe31  1  0.416655  0.919129  0.398396  0  .  1
   Fe  Fe32  1  0.750000  0.437359  0.612412  0  .  1
   Fe  Fe33  1  0.083441  0.438786  0.612584  0  .  1
   Fe  Fe34  1  0.250000  0.062641  0.112412  0  .  1
   Fe  Fe35  1  0.750000  0.917646  0.398493  0  .  1
   Fe  Fe36  1  0.083345  0.419129  0.101604  0  .  1
   O  O37  1  0.750000  0.114222  0.478452  0  .  1
   O  O38  1  0.583376  0.473470  0.214393  0  .  1
   O  O39  1  0.916421  0.577672  0.573427  0  .  1
   O  O40  1  0.916833  0.296402  0.657653  0  .  1
   O  O41  1  0.916624  0.473470  0.214393  0  .  1
   O  O42  1  0.916753  0.884145  0.521656  0  .  1
   O  O43  1  0.083247  0.115855  0.478344  0  .  1
   O  O44  1  0.750000  0.420660  0.426423  0  .  1
   O  O45  1  0.583579  0.577672  0.573427  0  .  1
   O  O46  1  0.583167  0.296402  0.657653  0  .  1
   O  O47  1  0.750000  0.701947  0.342076  0  .  1
   O  O48  1  0.416833  0.203598  0.157653  0  .  1
   O  O49  1  0.750000  0.201947  0.157924  0  .  1
   O  O50  1  0.083579  0.922328  0.073427  0  .  1
   O  O51  1  0.250000  0.475350  0.214429  0  .  1
   O  O52  1  0.583247  0.884145  0.521656  0  .  1
   O  O53  1  0.416624  0.026530  0.714393  0  .  1
   O  O54  1  0.750000  0.024650  0.714429  0  .  1
   O  O55  1  0.416753  0.615855  0.021656  0  .  1
   O  O56  1  0.416624  0.526530  0.785607  0  .  1
   O  O57  1  0.416421  0.922328  0.073427  0  .  1
   O  O58  1  0.416833  0.703598  0.342347  0  .  1
   O  O59  1  0.083167  0.703598  0.342347  0  .  1
   O  O60  1  0.416421  0.422328  0.426573  0  .  1
   O  O61  1  0.083247  0.615855  0.021656  0  .  1
   O  O62  1  0.250000  0.798053  0.842076  0  .  1
   O  O63  1  0.416753  0.115855  0.478344  0  .  1
   O  O64  1  0.750000  0.614222  0.021548  0  .  1
   O  O65  1  0.083579  0.422328  0.426573  0  .  1
   O  O66  1  0.583376  0.973470  0.285607  0  .  1
   O  O67  1  0.083167  0.203598  0.157653  0  .  1
   O  O68  1  0.583247  0.384145  0.978344  0  .  1
   O  O69  1  0.250000  0.579340  0.573577  0  .  1
   O  O70  1  0.750000  0.524650  0.785571  0  .  1
   O  O71  1  0.583579  0.077672  0.926573  0  .  1
   O  O72  1  0.083376  0.526530  0.785607  0  .  1
   O  O73  1  0.250000  0.385778  0.978452  0  .  1
   O  O74  1  0.250000  0.885778  0.521548  0  .  1
   O  O75  1  0.750000  0.920660  0.073577  0  .  1
   O  O76  1  0.916624  0.973470  0.285607  0  .  1
   O  O77  1  0.250000  0.975350  0.285571  0  .  1
   O  O78  1  0.583167  0.796402  0.842347  0  .  1
   O  O79  1  0.250000  0.079340  0.926423  0  .  1
   O  O80  1  0.250000  0.298053  0.657924  0  .  1
   O  O81  1  0.916421  0.077672  0.926573  0  .  1
   O  O82  1  0.083376  0.026530  0.714393  0  .  1
   O  O83  1  0.916753  0.384145  0.978344  0  .  1
   O  O84  1  0.916833  0.796402  0.842347  0  .  1
 
