#\#CIF1.1
##########################################################################
#               Crystallographic Information Format file 
#               Produced by PyCifRW module
# 
#  This is a CIF file.  CIF has been adopted by the International
#  Union of Crystallography as the standard for data archiving and 
#  transmission.
#
#  For information on this file format, follow the CIF links at
#  http://www.iucr.org
##########################################################################

data_Ca(NiO2)4
_symmetry_space_group_name_H-M          'P 1'
_cell_length_a                          6.49433678378
_cell_length_b                          6.49433678564
_cell_length_c                          6.49433678304
_cell_angle_alpha                       52.1924964269
_cell_angle_beta                        52.1924964628
_cell_angle_gamma                       52.1924964219
_chemical_name_systematic               'Generated by pymatgen'
_symmetry_Int_Tables_number             1
_chemical_formula_structural            Ca(NiO2)4
_chemical_formula_sum                   'Ca1 Ni4 O8'
_cell_volume                            158.149638466
_cell_formula_units_Z                   1
loop_
  _symmetry_equiv_pos_site_id
  _symmetry_equiv_pos_as_xyz
   1  'x, y, z'
 
loop_
  _atom_site_type_symbol
  _atom_site_label
  _atom_site_symmetry_multiplicity
  _atom_site_fract_x
  _atom_site_fract_y
  _atom_site_fract_z
  _atom_site_attached_hydrogens
  _atom_site_B_iso_or_equiv
  _atom_site_occupancy
   O  O1  1  0.762435  0.295697  0.762435  0  .  1
   O  O2  1  0.237564  0.237565  0.704303  0  .  1
   O  O3  1  0.237564  0.704304  0.237564  0  .  1
   O  O4  1  0.704302  0.237565  0.237565  0  .  1
   O  O5  1  0.276382  0.276383  0.276382  0  .  1
   O  O6  1  0.723618  0.723618  0.723618  0  .  1
   O  O7  1  0.295698  0.762436  0.762435  0  .  1
   O  O8  1  0.762436  0.762436  0.295697  0  .  1
   Ca  Ca9  1  0.500000  0.500001  0.499999  0  .  1
   Ni  Ni10  1  0.500001  0.999999  0.500001  0  .  1
   Ni  Ni11  1  0.999999  0.500000  0.500001  0  .  1
   Ni  Ni12  1  0.500000  0.500000  0.000000  0  .  1
   Ni  Ni13  1  0.000000  0.000000  0.000000  0  .  1
 
