#\#CIF1.1
##########################################################################
#               Crystallographic Information Format file 
#               Produced by PyCifRW module
# 
#  This is a CIF file.  CIF has been adopted by the International
#  Union of Crystallography as the standard for data archiving and 
#  transmission.
#
#  For information on this file format, follow the CIF links at
#  http://www.iucr.org
##########################################################################

data_Ca(ZnSi)2
_symmetry_space_group_name_H-M          'P 1'
_cell_length_a                          4.24996323291
_cell_length_b                          4.24996323304
_cell_length_c                          5.90793372494
_cell_angle_alpha                       111.080711562
_cell_angle_beta                        111.080711538
_cell_angle_gamma                       90.0000000139
_chemical_name_systematic               'Generated by pymatgen'
_symmetry_Int_Tables_number             1
_chemical_formula_structural            Ca(ZnSi)2
_chemical_formula_sum                   'Ca1 Zn2 Si2'
_cell_volume                            91.8735027858
_cell_formula_units_Z                   1
loop_
  _symmetry_equiv_pos_site_id
  _symmetry_equiv_pos_as_xyz
   1  'x, y, z'
 
loop_
  _atom_site_type_symbol
  _atom_site_label
  _atom_site_symmetry_multiplicity
  _atom_site_fract_x
  _atom_site_fract_y
  _atom_site_fract_z
  _atom_site_attached_hydrogens
  _atom_site_B_iso_or_equiv
  _atom_site_occupancy
   Si  Si1  1  0.615417  0.615417  0.230835  0  .  1
   Si  Si2  1  0.384583  0.384583  0.769165  0  .  1
   Ca  Ca3  1  0.000000  0.000000  0.000000  0  .  1
   Zn  Zn4  1  0.750000  0.250000  0.500000  0  .  1
   Zn  Zn5  1  0.250000  0.750000  0.500000  0  .  1
 
