#\#CIF1.1
##########################################################################
#               Crystallographic Information Format file 
#               Produced by PyCifRW module
# 
#  This is a CIF file.  CIF has been adopted by the International
#  Union of Crystallography as the standard for data archiving and 
#  transmission.
#
#  For information on this file format, follow the CIF links at
#  http://www.iucr.org
##########################################################################

data_Ca14MnP11
_symmetry_space_group_name_H-M          'P 1'
_cell_length_a                          14.9052591711
_cell_length_b                          14.905192441
_cell_length_c                          14.9053540562
_cell_angle_alpha                       93.2697443696
_cell_angle_beta                        118.158468968
_cell_angle_gamma                       118.102320786
_chemical_name_systematic               'Generated by pymatgen'
_symmetry_Int_Tables_number             1
_chemical_formula_structural            Ca14MnP11
_chemical_formula_sum                   'Ca56 Mn4 P44'
_cell_volume                            2403.49537474
_cell_formula_units_Z                   4
loop_
  _symmetry_equiv_pos_site_id
  _symmetry_equiv_pos_as_xyz
   1  'x, y, z'
 
loop_
  _atom_site_type_symbol
  _atom_site_label
  _atom_site_symmetry_multiplicity
  _atom_site_fract_x
  _atom_site_fract_y
  _atom_site_fract_z
  _atom_site_attached_hydrogens
  _atom_site_B_iso_or_equiv
  _atom_site_occupancy
   Ca  Ca1  1  0.148191  0.750002  0.898192  0  .  1
   Ca  Ca2  1  0.021975  0.741245  0.626576  0  .  1
   Ca  Ca3  1  0.037386  0.788738  0.409531  0  .  1
   Ca  Ca4  1  0.084914  0.520714  0.749244  0  .  1
   Ca  Ca5  1  0.356679  0.973951  0.877388  0  .  1
   Ca  Ca6  1  0.120803  0.372148  0.909530  0  .  1
   Ca  Ca7  1  0.098263  0.129215  0.981558  0  .  1
   Ca  Ca8  1  0.143674  0.623367  0.526607  0  .  1
   Ca  Ca9  1  0.421222  0.754968  0.975623  0  .  1
   Ca  Ca10  1  0.148840  0.902212  0.254360  0  .  1
   Ca  Ca11  1  0.476621  0.871247  0.756697  0  .  1
   Ca  Ca12  1  0.352335  0.883278  0.481552  0  .  1
   Ca  Ca13  1  0.352147  0.597790  0.746628  0  .  1
   Ca  Ca14  1  0.228531  0.979289  0.064207  0  .  1
   Ca  Ca15  1  0.275358  0.335141  0.751321  0  .  1
   Ca  Ca16  1  0.220660  0.745034  0.166263  0  .  1
   Ca  Ca17  1  0.267944  0.430640  0.520252  0  .  1
   Ca  Ca18  1  0.098500  0.468630  0.116535  0  .  1
   Ca  Ca19  1  0.598262  0.616709  0.969052  0  .  1
   Ca  Ca20  1  0.147902  0.018044  0.616537  0  .  1
   Ca  Ca21  1  0.089638  0.069382  0.337320  0  .  1
   Ca  Ca22  1  0.121013  0.250317  0.211818  0  .  1
   Ca  Ca23  1  0.584897  0.835662  0.564191  0  .  1
   Ca  Ca24  1  0.620791  0.711271  0.748649  0  .  1
   Ca  Ca25  1  0.351990  0.250005  0.601993  0  .  1
   Ca  Ca26  1  0.521974  0.895400  0.280723  0  .  1
   Ca  Ca27  1  0.403444  0.520707  0.377386  0  .  1
   Ca  Ca28  1  0.621010  0.409190  0.870706  0  .  1
   Ca  Ca29  1  0.385331  0.604599  0.126573  0  .  1
   Ca  Ca30  1  0.598496  0.481961  0.629868  0  .  1
   Ca  Ca31  1  0.461503  0.090808  0.711825  0  .  1
   Ca  Ca32  1  0.648190  0.750005  0.398187  0  .  1
   Ca  Ca33  1  0.385457  0.280080  0.256703  0  .  1
   Ca  Ca34  1  0.416172  0.164854  0.440212  0  .  1
   Ca  Ca35  1  0.885317  0.758740  0.780728  0  .  1
   Ca  Ca36  1  0.921212  0.945583  0.666257  0  .  1
   Ca  Ca37  1  0.856696  0.979307  0.382753  0  .  1
   Ca  Ca38  1  0.403242  0.382925  0.026603  0  .  1
   Ca  Ca39  1  0.903458  0.526071  0.882760  0  .  1
   Ca  Ca40  1  0.720663  0.554406  0.475628  0  .  1
   Ca  Ca41  1  0.767944  0.247692  0.837313  0  .  1
   Ca  Ca42  1  0.728539  0.664334  0.249245  0  .  1
   Ca  Ca43  1  0.775357  0.024047  0.940202  0  .  1
   Ca  Ca44  1  0.648836  0.394484  0.246630  0  .  1
   Ca  Ca45  1  0.643666  0.117050  0.520301  0  .  1
   Ca  Ca46  1  0.537383  0.127856  0.248651  0  .  1
   Ca  Ca47  1  0.852145  0.105514  0.754352  0  .  1
   Ca  Ca48  1  0.589609  0.252303  0.020257  0  .  1
   Ca  Ca49  1  0.852342  0.370795  0.469051  0  .  1
   Ca  Ca50  1  0.903255  0.876644  0.020306  0  .  1
   Ca  Ca51  1  0.885454  0.628760  0.105380  0  .  1
   Ca  Ca52  1  0.647906  0.031374  0.129864  0  .  1
   Ca  Ca53  1  0.916166  0.475962  0.251312  0  .  1
   Ca  Ca54  1  0.976624  0.219925  0.605375  0  .  1
   Ca  Ca55  1  0.961509  0.249692  0.370696  0  .  1
   Ca  Ca56  1  0.851985  0.250003  0.101983  0  .  1
   Mn  Mn57  1  0.251653  0.125690  0.876024  0  .  1
   Mn  Mn58  1  0.250301  0.624271  0.375977  0  .  1
   Mn  Mn59  1  0.751742  0.875653  0.126005  0  .  1
   Mn  Mn60  1  0.750457  0.374350  0.626044  0  .  1
   P  P61  1  0.121115  0.929195  0.817590  0  .  1
   P  P62  1  0.156411  0.584352  0.980439  0  .  1
   P  P63  1  0.250010  0.745643  0.753766  0  .  1
   P  P64  1  0.249620  0.855241  0.644324  0  .  1
   P  P65  1  0.100065  0.426865  0.581181  0  .  1
   P  P66  1  0.114452  0.185753  0.806878  0  .  1
   P  P67  1  0.121119  0.692413  0.306884  0  .  1
   P  P68  1  0.008129  0.754369  0.004374  0  .  1
   P  P69  1  0.342977  0.522160  0.914852  0  .  1
   P  P70  1  0.111609  0.428033  0.307917  0  .  1
   P  P71  1  0.103023  0.175724  0.521375  0  .  1
   P  P72  1  0.392689  0.977833  0.320812  0  .  1
   P  P73  1  0.380237  0.680621  0.571607  0  .  1
   P  P74  1  0.614473  0.807593  0.928704  0  .  1
   P  P75  1  0.474446  0.486887  0.736575  0  .  1
   P  P76  1  0.379855  0.196291  0.807943  0  .  1
   P  P77  1  0.388365  0.696450  0.317584  0  .  1
   P  P78  1  0.396095  0.915657  0.072056  0  .  1
   P  P79  1  0.345657  0.324287  0.427303  0  .  1
   P  P80  1  0.842974  0.928121  0.820813  0  .  1
   P  P81  1  0.249688  0.013117  0.487564  0  .  1
   P  P82  1  0.750004  0.996240  0.504368  0  .  1
   P  P83  1  0.289087  0.394706  0.144319  0  .  1
   P  P84  1  0.154325  0.073144  0.173209  0  .  1
   P  P85  1  0.789082  0.644766  0.894384  0  .  1
   P  P86  1  0.656404  0.675971  0.572054  0  .  1
   P  P87  1  0.603013  0.081645  0.927301  0  .  1
   P  P88  1  0.611608  0.303685  0.683584  0  .  1
   P  P89  1  0.621137  0.803544  0.191919  0  .  1
   P  P90  1  0.508132  0.503760  0.253761  0  .  1
   P  P91  1  0.390978  0.191360  0.071615  0  .  1
   P  P92  1  0.621131  0.314238  0.428729  0  .  1
   P  P93  1  0.600065  0.018885  0.673203  0  .  1
   P  P94  1  0.896091  0.824036  0.480438  0  .  1
   P  P95  1  0.888367  0.570767  0.691919  0  .  1
   P  P96  1  0.654320  0.481116  0.081183  0  .  1
   P  P97  1  0.974448  0.237877  0.987556  0  .  1
   P  P98  1  0.880262  0.308617  0.699637  0  .  1
   P  P99  1  0.891010  0.819383  0.199631  0  .  1
   P  P100  1  0.892691  0.571881  0.414852  0  .  1
   P  P101  1  0.749684  0.262126  0.236571  0  .  1
   P  P102  1  0.749621  0.105298  0.394381  0  .  1
   P  P103  1  0.845662  0.418362  0.021375  0  .  1
   P  P104  1  0.879890  0.071959  0.183571  0  .  1
 
