#\#CIF1.1
##########################################################################
#               Crystallographic Information Format file 
#               Produced by PyCifRW module
# 
#  This is a CIF file.  CIF has been adopted by the International
#  Union of Crystallography as the standard for data archiving and 
#  transmission.
#
#  For information on this file format, follow the CIF links at
#  http://www.iucr.org
##########################################################################

data_Ca2CrO4
_symmetry_space_group_name_H-M          'P 1'
_cell_length_a                          13.59428253
_cell_length_b                          5.64440421
_cell_length_c                          9.66316447
_cell_angle_alpha                       90.0
_cell_angle_beta                        90.0
_cell_angle_gamma                       90.0
_chemical_name_systematic               'Generated by pymatgen'
_symmetry_Int_Tables_number             1
_chemical_formula_structural            Ca2CrO4
_chemical_formula_sum                   'Ca16 Cr8 O32'
_cell_volume                            741.470317685
_cell_formula_units_Z                   8
loop_
  _symmetry_equiv_pos_site_id
  _symmetry_equiv_pos_as_xyz
   1  'x, y, z'
 
loop_
  _atom_site_type_symbol
  _atom_site_label
  _atom_site_symmetry_multiplicity
  _atom_site_fract_x
  _atom_site_fract_y
  _atom_site_fract_z
  _atom_site_attached_hydrogens
  _atom_site_B_iso_or_equiv
  _atom_site_occupancy
   Ca  Ca1  1  0.048910  0.719907  0.772121  0  .  1
   Ca  Ca2  1  0.120701  0.685372  0.417791  0  .  1
   Ca  Ca3  1  0.128272  0.226691  0.995523  0  .  1
   Ca  Ca4  1  0.202338  0.181289  0.645098  0  .  1
   Ca  Ca5  1  0.297662  0.681289  0.145098  0  .  1
   Ca  Ca6  1  0.371728  0.726691  0.495523  0  .  1
   Ca  Ca7  1  0.379299  0.185372  0.917791  0  .  1
   Ca  Ca8  1  0.451090  0.219907  0.272121  0  .  1
   Ca  Ca9  1  0.548910  0.780093  0.772121  0  .  1
   Ca  Ca10  1  0.620701  0.814628  0.417791  0  .  1
   Ca  Ca11  1  0.628272  0.273309  0.995523  0  .  1
   Ca  Ca12  1  0.702338  0.318711  0.645098  0  .  1
   Ca  Ca13  1  0.797662  0.818711  0.145098  0  .  1
   Ca  Ca14  1  0.871728  0.773309  0.495523  0  .  1
   Ca  Ca15  1  0.879299  0.314628  0.917791  0  .  1
   Ca  Ca16  1  0.951090  0.280093  0.272121  0  .  1
   Cr  Cr17  1  0.029661  0.776363  0.127515  0  .  1
   Cr  Cr18  1  0.226402  0.176582  0.283872  0  .  1
   Cr  Cr19  1  0.273598  0.676582  0.783872  0  .  1
   Cr  Cr20  1  0.470339  0.276363  0.627515  0  .  1
   Cr  Cr21  1  0.529661  0.723637  0.127515  0  .  1
   Cr  Cr22  1  0.726402  0.323418  0.283872  0  .  1
   Cr  Cr23  1  0.773598  0.823418  0.783872  0  .  1
   Cr  Cr24  1  0.970339  0.223637  0.627515  0  .  1
   O  O25  1  0.016978  0.557844  0.997585  0  .  1
   O  O26  1  0.026892  0.956467  0.559439  0  .  1
   O  O27  1  0.048347  0.285725  0.772644  0  .  1
   O  O28  1  0.119669  0.352892  0.245223  0  .  1
   O  O29  1  0.148102  0.869971  0.194705  0  .  1
   O  O30  1  0.191264  0.613684  0.639712  0  .  1
   O  O31  1  0.198314  0.942401  0.845102  0  .  1
   O  O32  1  0.257977  0.493119  0.936508  0  .  1
   O  O33  1  0.242023  0.993119  0.436508  0  .  1
   O  O34  1  0.301686  0.442401  0.345102  0  .  1
   O  O35  1  0.308736  0.113684  0.139712  0  .  1
   O  O36  1  0.351898  0.369971  0.694705  0  .  1
   O  O37  1  0.380331  0.852892  0.745223  0  .  1
   O  O38  1  0.451653  0.785725  0.272644  0  .  1
   O  O39  1  0.473108  0.456467  0.059439  0  .  1
   O  O40  1  0.483022  0.057844  0.497585  0  .  1
   O  O41  1  0.516978  0.942156  0.997585  0  .  1
   O  O42  1  0.526892  0.543533  0.559439  0  .  1
   O  O43  1  0.548347  0.214275  0.772644  0  .  1
   O  O44  1  0.619669  0.147108  0.245223  0  .  1
   O  O45  1  0.648102  0.630029  0.194705  0  .  1
   O  O46  1  0.691264  0.886316  0.639712  0  .  1
   O  O47  1  0.698314  0.557599  0.845102  0  .  1
   O  O48  1  0.757977  0.006881  0.936508  0  .  1
   O  O49  1  0.742023  0.506881  0.436508  0  .  1
   O  O50  1  0.801686  0.057599  0.345102  0  .  1
   O  O51  1  0.808736  0.386316  0.139712  0  .  1
   O  O52  1  0.851898  0.130029  0.694705  0  .  1
   O  O53  1  0.880331  0.647108  0.745223  0  .  1
   O  O54  1  0.951653  0.714275  0.272644  0  .  1
   O  O55  1  0.973108  0.043533  0.059439  0  .  1
   O  O56  1  0.983022  0.442156  0.497585  0  .  1
 
