#\#CIF1.1
##########################################################################
#               Crystallographic Information Format file 
#               Produced by PyCifRW module
# 
#  This is a CIF file.  CIF has been adopted by the International
#  Union of Crystallography as the standard for data archiving and 
#  transmission.
#
#  For information on this file format, follow the CIF links at
#  http://www.iucr.org
##########################################################################

data_Ca2CrO8
_symmetry_space_group_name_H-M          'P 1'
_cell_length_a                          5.72120210915
_cell_length_b                          5.72120210915
_cell_length_c                          9.71694727515
_cell_angle_alpha                       81.6062406402
_cell_angle_beta                        98.3937593598
_cell_angle_gamma                       96.0502695736
_chemical_name_systematic               'Generated by pymatgen'
_symmetry_Int_Tables_number             1
_chemical_formula_structural            Ca2CrO8
_chemical_formula_sum                   'Ca4 Cr2 O16'
_cell_volume                            310.128029631
_cell_formula_units_Z                   2
loop_
  _symmetry_equiv_pos_site_id
  _symmetry_equiv_pos_as_xyz
   1  'x, y, z'
 
loop_
  _atom_site_type_symbol
  _atom_site_label
  _atom_site_symmetry_multiplicity
  _atom_site_fract_x
  _atom_site_fract_y
  _atom_site_fract_z
  _atom_site_attached_hydrogens
  _atom_site_B_iso_or_equiv
  _atom_site_occupancy
   Ca  Ca1  1  0.560879  0.945653  0.459491  0  .  1
   Ca  Ca2  1  0.560910  0.945622  0.959558  0  .  1
   Ca  Ca3  1  0.054347  0.439121  0.459491  0  .  1
   Ca  Ca4  1  0.054378  0.439090  0.959558  0  .  1
   Cr  Cr5  1  0.162393  0.837607  0.156139  0  .  1
   Cr  Cr6  1  0.162428  0.837572  0.656223  0  .  1
   O  O7  1  0.251713  0.107185  0.085751  0  .  1
   O  O8  1  0.251696  0.107164  0.585725  0  .  1
   O  O9  1  0.892815  0.748287  0.085751  0  .  1
   O  O10  1  0.892836  0.748304  0.585725  0  .  1
   O  O11  1  0.187511  0.812489  0.331407  0  .  1
   O  O12  1  0.187538  0.812462  0.831437  0  .  1
   O  O13  1  0.341656  0.658344  0.111479  0  .  1
   O  O14  1  0.341654  0.658346  0.611453  0  .  1
   O  O15  1  0.800851  0.199149  0.143724  0  .  1
   O  O16  1  0.800857  0.199143  0.643728  0  .  1
   O  O17  1  0.460528  0.364030  0.390116  0  .  1
   O  O18  1  0.460554  0.364022  0.890174  0  .  1
   O  O19  1  0.635970  0.539472  0.390116  0  .  1
   O  O20  1  0.635978  0.539446  0.890174  0  .  1
   O  O21  1  0.831855  0.168145  0.284136  0  .  1
   O  O22  1  0.831854  0.168146  0.784142  0  .  1
 
