#\#CIF1.1
##########################################################################
#               Crystallographic Information Format file 
#               Produced by PyCifRW module
# 
#  This is a CIF file.  CIF has been adopted by the International
#  Union of Crystallography as the standard for data archiving and 
#  transmission.
#
#  For information on this file format, follow the CIF links at
#  http://www.iucr.org
##########################################################################

data_Ca2Mn3O8
_symmetry_space_group_name_H-M          'P 1'
_cell_length_a                          5.03621717643
_cell_length_b                          5.9536256242
_cell_length_c                          6.30766151239
_cell_angle_alpha                       118.160042781
_cell_angle_beta                        107.329023027
_cell_angle_gamma                       89.9999999802
_chemical_name_systematic               'Generated by pymatgen'
_symmetry_Int_Tables_number             1
_chemical_formula_structural            Ca2Mn3O8
_chemical_formula_sum                   'Ca2 Mn3 O8'
_cell_volume                            156.936588464
_cell_formula_units_Z                   1
loop_
  _symmetry_equiv_pos_site_id
  _symmetry_equiv_pos_as_xyz
   1  'x, y, z'
 
loop_
  _atom_site_type_symbol
  _atom_site_label
  _atom_site_symmetry_multiplicity
  _atom_site_fract_x
  _atom_site_fract_y
  _atom_site_fract_z
  _atom_site_attached_hydrogens
  _atom_site_B_iso_or_equiv
  _atom_site_occupancy
   O  O1  1  0.041796  0.396529  0.793059  0  .  1
   O  O2  1  0.958204  0.603470  0.206941  0  .  1
   O  O3  1  0.096702  0.903072  0.806144  0  .  1
   O  O4  1  0.903298  0.096927  0.193855  0  .  1
   O  O5  1  0.391621  0.323477  0.203507  0  .  1
   O  O6  1  0.391621  0.880030  0.203507  0  .  1
   O  O7  1  0.608380  0.119969  0.796493  0  .  1
   O  O8  1  0.608380  0.676523  0.796493  0  .  1
   Ca  Ca9  1  0.663223  0.722859  0.445717  0  .  1
   Ca  Ca10  1  0.336776  0.277142  0.554283  0  .  1
   Mn  Mn11  1  0.500000  0.999999  1.000000  0  .  1
   Mn  Mn12  1  0.999999  0.741978  0.000000  0  .  1
   Mn  Mn13  1  0.999999  0.258022  1.000000  0  .  1
 
