#\#CIF1.1
##########################################################################
#               Crystallographic Information Format file 
#               Produced by PyCifRW module
# 
#  This is a CIF file.  CIF has been adopted by the International
#  Union of Crystallography as the standard for data archiving and 
#  transmission.
#
#  For information on this file format, follow the CIF links at
#  http://www.iucr.org
##########################################################################

data_Ca2Ni7P4
_symmetry_space_group_name_H-M          'P 1'
_cell_length_a                          3.68983083
_cell_length_b                          9.19422597
_cell_length_c                          10.35583412
_cell_angle_alpha                       90.0
_cell_angle_beta                        90.0
_cell_angle_gamma                       90.0
_chemical_name_systematic               'Generated by pymatgen'
_symmetry_Int_Tables_number             1
_chemical_formula_structural            Ca2Ni7P4
_chemical_formula_sum                   'Ca4 Ni14 P8'
_cell_volume                            351.323106204
_cell_formula_units_Z                   2
loop_
  _symmetry_equiv_pos_site_id
  _symmetry_equiv_pos_as_xyz
   1  'x, y, z'
 
loop_
  _atom_site_type_symbol
  _atom_site_label
  _atom_site_symmetry_multiplicity
  _atom_site_fract_x
  _atom_site_fract_y
  _atom_site_fract_z
  _atom_site_attached_hydrogens
  _atom_site_B_iso_or_equiv
  _atom_site_occupancy
   Ca  Ca1  1  0.000000  0.060607  0.394597  0  .  1
   Ca  Ca2  1  0.500000  0.939393  0.894597  0  .  1
   Ca  Ca3  1  0.000000  0.437651  0.178611  0  .  1
   Ca  Ca4  1  0.500000  0.562349  0.678611  0  .  1
   Ni  Ni5  1  0.000000  0.059393  0.700376  0  .  1
   Ni  Ni6  1  0.500000  0.940607  0.200376  0  .  1
   Ni  Ni7  1  0.000000  0.728576  0.508417  0  .  1
   Ni  Ni8  1  0.500000  0.271424  0.008417  0  .  1
   Ni  Ni9  1  0.000000  0.095352  0.095681  0  .  1
   Ni  Ni10  1  0.500000  0.904648  0.595681  0  .  1
   Ni  Ni11  1  0.000000  0.748154  0.273290  0  .  1
   Ni  Ni12  1  0.500000  0.251846  0.773290  0  .  1
   Ni  Ni13  1  0.000000  0.304728  0.600417  0  .  1
   Ni  Ni14  1  0.500000  0.695272  0.100417  0  .  1
   Ni  Ni15  1  0.000000  0.683949  0.913580  0  .  1
   Ni  Ni16  1  0.500000  0.316051  0.413580  0  .  1
   Ni  Ni17  1  0.000000  0.415280  0.873216  0  .  1
   Ni  Ni18  1  0.500000  0.584720  0.373216  0  .  1
   P  P19  1  0.000000  0.180697  0.891631  0  .  1
   P  P20  1  0.500000  0.819303  0.391631  0  .  1
   P  P21  1  0.000000  0.843505  0.083268  0  .  1
   P  P22  1  0.500000  0.156495  0.583268  0  .  1
   P  P23  1  0.000000  0.812405  0.711919  0  .  1
   P  P24  1  0.500000  0.187595  0.211919  0  .  1
   P  P25  1  0.000000  0.478644  0.459095  0  .  1
   P  P26  1  0.500000  0.521356  0.959095  0  .  1
 
