#\#CIF1.1
##########################################################################
#               Crystallographic Information Format file 
#               Produced by PyCifRW module
# 
#  This is a CIF file.  CIF has been adopted by the International
#  Union of Crystallography as the standard for data archiving and 
#  transmission.
#
#  For information on this file format, follow the CIF links at
#  http://www.iucr.org
##########################################################################

data_Ca2V2O7
_symmetry_space_group_name_H-M          'P 1'
_cell_length_a                          6.76508733677
_cell_length_b                          7.07780899315
_cell_length_c                          7.14803497615
_cell_angle_alpha                       85.1798630932
_cell_angle_beta                        63.7887864914
_cell_angle_gamma                       81.940429161
_chemical_name_systematic               'Generated by pymatgen'
_symmetry_Int_Tables_number             1
_chemical_formula_structural            Ca2V2O7
_chemical_formula_sum                   'Ca4 V4 O14'
_cell_volume                            303.940932844
_cell_formula_units_Z                   2
loop_
  _symmetry_equiv_pos_site_id
  _symmetry_equiv_pos_as_xyz
   1  'x, y, z'
 
loop_
  _atom_site_type_symbol
  _atom_site_label
  _atom_site_symmetry_multiplicity
  _atom_site_fract_x
  _atom_site_fract_y
  _atom_site_fract_z
  _atom_site_attached_hydrogens
  _atom_site_B_iso_or_equiv
  _atom_site_occupancy
   O  O1  1  0.757705  0.788949  0.669783  0  .  1
   O  O2  1  0.242297  0.211051  0.330216  0  .  1
   O  O3  1  0.361712  0.822429  0.579538  0  .  1
   O  O4  1  0.638288  0.177572  0.420462  0  .  1
   O  O5  1  0.348691  0.551387  0.894637  0  .  1
   O  O6  1  0.651309  0.448614  0.105363  0  .  1
   O  O7  1  0.884464  0.135895  0.743007  0  .  1
   O  O8  1  0.115536  0.864104  0.256993  0  .  1
   O  O9  1  0.047398  0.201461  0.065205  0  .  1
   O  O10  1  0.952601  0.798539  0.934795  0  .  1
   O  O11  1  0.458039  0.092128  0.869516  0  .  1
   O  O12  1  0.142078  0.494402  0.634784  0  .  1
   O  O13  1  0.857922  0.505597  0.365216  0  .  1
   O  O14  1  0.541961  0.907872  0.130486  0  .  1
   Ca  Ca15  1  0.259753  0.544091  0.259780  0  .  1
   Ca  Ca16  1  0.740247  0.455908  0.740220  0  .  1
   Ca  Ca17  1  0.744386  0.841315  0.331530  0  .  1
   Ca  Ca18  1  0.255614  0.158686  0.668471  0  .  1
   V  V19  1  0.726082  0.950581  0.846047  0  .  1
   V  V20  1  0.273917  0.049419  0.153953  0  .  1
   V  V21  1  0.201332  0.666308  0.763430  0  .  1
   V  V22  1  0.798667  0.333691  0.236571  0  .  1
 
