#\#CIF1.1
##########################################################################
#               Crystallographic Information Format file 
#               Produced by PyCifRW module
# 
#  This is a CIF file.  CIF has been adopted by the International
#  Union of Crystallography as the standard for data archiving and 
#  transmission.
#
#  For information on this file format, follow the CIF links at
#  http://www.iucr.org
##########################################################################

data_Ca3(CoO3)2
_symmetry_space_group_name_H-M          'P 1'
_cell_length_a                          6.32477602796
_cell_length_b                          6.32477602005
_cell_length_c                          6.32477602644
_cell_angle_alpha                       92.4288720001
_cell_angle_beta                        92.4288719622
_cell_angle_gamma                       92.4288719362
_chemical_name_systematic               'Generated by pymatgen'
_symmetry_Int_Tables_number             1
_chemical_formula_structural            Ca3(CoO3)2
_chemical_formula_sum                   'Ca6 Co4 O12'
_cell_volume                            252.306866263
_cell_formula_units_Z                   2
loop_
  _symmetry_equiv_pos_site_id
  _symmetry_equiv_pos_as_xyz
   1  'x, y, z'
 
loop_
  _atom_site_type_symbol
  _atom_site_label
  _atom_site_symmetry_multiplicity
  _atom_site_fract_x
  _atom_site_fract_y
  _atom_site_fract_z
  _atom_site_attached_hydrogens
  _atom_site_B_iso_or_equiv
  _atom_site_occupancy
   O  O1  1  0.789796  0.594474  0.461996  0  .  1
   O  O2  1  0.594474  0.461996  0.789796  0  .  1
   O  O3  1  0.461996  0.789796  0.594474  0  .  1
   O  O4  1  0.038004  0.905526  0.710204  0  .  1
   O  O5  1  0.905526  0.710204  0.038004  0  .  1
   O  O6  1  0.710204  0.038004  0.905526  0  .  1
   O  O7  1  0.210204  0.405526  0.538004  0  .  1
   O  O8  1  0.405526  0.538004  0.210204  0  .  1
   O  O9  1  0.538004  0.210204  0.405526  0  .  1
   O  O10  1  0.961996  0.094474  0.289796  0  .  1
   O  O11  1  0.289796  0.961996  0.094474  0  .  1
   O  O12  1  0.094474  0.289796  0.961996  0  .  1
   Ca  Ca13  1  0.618676  0.881324  0.250000  0  .  1
   Ca  Ca14  1  0.250000  0.618676  0.881324  0  .  1
   Ca  Ca15  1  0.881324  0.250000  0.618676  0  .  1
   Ca  Ca16  1  0.381324  0.118676  0.750000  0  .  1
   Ca  Ca17  1  0.118676  0.750000  0.381324  0  .  1
   Ca  Ca18  1  0.750000  0.381324  0.118676  0  .  1
   Co  Co19  1  0.000000  0.000000  0.000000  0  .  1
   Co  Co20  1  0.500000  0.500000  0.500000  0  .  1
   Co  Co21  1  0.250000  0.250000  0.250000  0  .  1
   Co  Co22  1  0.750000  0.750000  0.750000  0  .  1
 
