#\#CIF1.1
##########################################################################
#               Crystallographic Information Format file 
#               Produced by PyCifRW module
# 
#  This is a CIF file.  CIF has been adopted by the International
#  Union of Crystallography as the standard for data archiving and 
#  transmission.
#
#  For information on this file format, follow the CIF links at
#  http://www.iucr.org
##########################################################################

data_Ca3Mn2O7
_symmetry_space_group_name_H-M          'P 1'
_cell_length_a                          5.38662608
_cell_length_b                          5.34003135724
_cell_length_c                          10.1001012789
_cell_angle_alpha                       105.328650397
_cell_angle_beta                        90.0
_cell_angle_gamma                       90.0
_chemical_name_systematic               'Generated by pymatgen'
_symmetry_Int_Tables_number             1
_chemical_formula_structural            Ca3Mn2O7
_chemical_formula_sum                   'Ca6 Mn4 O14'
_cell_volume                            280.191517042
_cell_formula_units_Z                   2
loop_
  _symmetry_equiv_pos_site_id
  _symmetry_equiv_pos_as_xyz
   1  'x, y, z'
 
loop_
  _atom_site_type_symbol
  _atom_site_label
  _atom_site_symmetry_multiplicity
  _atom_site_fract_x
  _atom_site_fract_y
  _atom_site_fract_z
  _atom_site_attached_hydrogens
  _atom_site_B_iso_or_equiv
  _atom_site_occupancy
   O  O1  1  0.738499  -0.000034  0.607916  0  .  1
   O  O2  1  0.238499  1.000034  0.392084  0  .  1
   O  O3  1  0.238499  0.607949  0.607916  0  .  1
   O  O4  1  0.738499  0.392051  0.392084  0  .  1
   O  O5  1  0.039654  0.346268  0.775633  0  .  1
   O  O6  1  0.539654  0.653732  0.224367  0  .  1
   O  O7  1  0.539654  0.429365  0.775633  0  .  1
   O  O8  1  0.039654  0.570635  0.224367  0  .  1
   O  O9  1  0.957055  0.873487  0.833053  0  .  1
   O  O10  1  0.457055  0.126513  0.166947  0  .  1
   O  O11  1  0.767040  0.323377  0.000000  0  .  1
   O  O12  1  0.267040  0.676623  0.000000  0  .  1
   O  O13  1  0.957055  0.040434  0.166947  0  .  1
   O  O14  1  0.457055  0.959566  0.833053  0  .  1
   Ca  Ca15  1  0.706358  0.755485  0.000000  0  .  1
   Ca  Ca16  1  0.206358  0.244515  0.000000  0  .  1
   Ca  Ca17  1  0.788588  0.569131  0.625466  0  .  1
   Ca  Ca18  1  0.288588  0.430869  0.374534  0  .  1
   Ca  Ca19  1  0.788588  0.943664  0.374534  0  .  1
   Ca  Ca20  1  0.288588  0.056336  0.625466  0  .  1
   Mn  Mn21  1  0.749506  0.348520  0.196531  0  .  1
   Mn  Mn22  1  0.249506  0.651480  0.803469  0  .  1
   Mn  Mn23  1  0.249506  0.848011  0.196531  0  .  1
   Mn  Mn24  1  0.749506  0.151989  0.803469  0  .  1
 
