#\#CIF1.1
##########################################################################
#               Crystallographic Information Format file 
#               Produced by PyCifRW module
# 
#  This is a CIF file.  CIF has been adopted by the International
#  Union of Crystallography as the standard for data archiving and 
#  transmission.
#
#  For information on this file format, follow the CIF links at
#  http://www.iucr.org
##########################################################################

data_Ca3V2O8
_symmetry_space_group_name_H-M          'P 1'
_cell_length_a                          5.63264647009
_cell_length_b                          5.64281226419
_cell_length_c                          7.10935988416
_cell_angle_alpha                       66.3264282447
_cell_angle_beta                        66.6651829827
_cell_angle_gamma                       60.0563611911
_chemical_name_systematic               'Generated by pymatgen'
_symmetry_Int_Tables_number             1
_chemical_formula_structural            Ca3V2O8
_chemical_formula_sum                   'Ca3 V2 O8'
_cell_volume                            173.787256824
_cell_formula_units_Z                   1
loop_
  _symmetry_equiv_pos_site_id
  _symmetry_equiv_pos_as_xyz
   1  'x, y, z'
 
loop_
  _atom_site_type_symbol
  _atom_site_label
  _atom_site_symmetry_multiplicity
  _atom_site_fract_x
  _atom_site_fract_y
  _atom_site_fract_z
  _atom_site_attached_hydrogens
  _atom_site_B_iso_or_equiv
  _atom_site_occupancy
   Ca  Ca1  1  0.000000  0.000000  0.000000  0  .  1
   Ca  Ca2  1  0.193393  0.198785  0.414391  0  .  1
   Ca  Ca3  1  0.806607  0.801215  0.585609  0  .  1
   V  V4  1  0.403746  0.403765  0.788733  0  .  1
   V  V5  1  0.596254  0.596235  0.211267  0  .  1
   O  O6  1  0.262872  0.773585  0.700553  0  .  1
   O  O7  1  0.737128  0.226415  0.299447  0  .  1
   O  O8  1  0.316496  0.307336  0.059724  0  .  1
   O  O9  1  0.683504  0.692664  0.940276  0  .  1
   O  O10  1  0.227544  0.732552  0.301574  0  .  1
   O  O11  1  0.261727  0.267415  0.698388  0  .  1
   O  O12  1  0.772456  0.267448  0.698426  0  .  1
   O  O13  1  0.738273  0.732585  0.301612  0  .  1
 
