#\#CIF1.1
##########################################################################
#               Crystallographic Information Format file 
#               Produced by PyCifRW module
# 
#  This is a CIF file.  CIF has been adopted by the International
#  Union of Crystallography as the standard for data archiving and 
#  transmission.
#
#  For information on this file format, follow the CIF links at
#  http://www.iucr.org
##########################################################################

data_Ca4Fe9O17
_symmetry_space_group_name_H-M          'P 1'
_cell_length_a                          6.08862244
_cell_length_b                          6.09287535776
_cell_length_c                          11.5740577899
_cell_angle_alpha                       97.4757735166
_cell_angle_beta                        90.0
_cell_angle_gamma                       119.976907002
_chemical_name_systematic               'Generated by pymatgen'
_symmetry_Int_Tables_number             1
_chemical_formula_structural            Ca4Fe9O17
_chemical_formula_sum                   'Ca4 Fe9 O17'
_cell_volume                            367.708524539
_cell_formula_units_Z                   1
loop_
  _symmetry_equiv_pos_site_id
  _symmetry_equiv_pos_as_xyz
   1  'x, y, z'
 
loop_
  _atom_site_type_symbol
  _atom_site_label
  _atom_site_symmetry_multiplicity
  _atom_site_fract_x
  _atom_site_fract_y
  _atom_site_fract_z
  _atom_site_attached_hydrogens
  _atom_site_B_iso_or_equiv
  _atom_site_occupancy
   O  O1  1  0.834337  0.660072  0.979636  0  .  1
   O  O2  1  0.174265  0.339928  0.020364  0  .  1
   O  O3  1  0.143634  0.982598  0.823062  0  .  1
   O  O4  1  0.161037  0.017402  0.176938  0  .  1
   O  O5  1  0.429199  0.575555  0.821812  0  .  1
   O  O6  1  0.853643  0.424445  0.178188  0  .  1
   O  O7  1  0.836896  0.266669  0.822364  0  .  1
   O  O8  1  0.570229  0.733333  0.177636  0  .  1
   O  O9  1  0.490566  0.000000  0.000000  0  .  1
   O  O10  1  0.097227  0.692908  0.594588  0  .  1
   O  O11  1  0.404320  0.307092  0.405412  0  .  1
   O  O12  1  0.608998  0.704677  0.594263  0  .  1
   O  O13  1  0.904320  0.295323  0.405737  0  .  1
   O  O14  1  0.903674  0.803629  0.401045  0  .  1
   O  O15  1  0.100044  0.196371  0.598955  0  .  1
   O  O16  1  0.595145  0.198536  0.593281  0  .  1
   O  O17  1  0.396610  0.801464  0.406719  0  .  1
   Ca  Ca18  1  0.458974  0.919800  0.750713  0  .  1
   Ca  Ca19  1  0.539173  0.080200  0.249287  0  .  1
   Ca  Ca20  1  0.206137  0.412671  0.241085  0  .  1
   Ca  Ca21  1  0.793467  0.587329  0.758915  0  .  1
   Fe  Fe22  1  0.158381  0.000000  0.000000  0  .  1
   Fe  Fe23  1  0.503622  0.670777  0.999685  0  .  1
   Fe  Fe24  1  0.832846  0.329223  0.000315  0  .  1
   Fe  Fe25  1  0.129369  0.259634  0.775295  0  .  1
   Fe  Fe26  1  0.869736  0.740366  0.224705  0  .  1
   Fe  Fe27  1  0.751897  0.496909  0.491838  0  .  1
   Fe  Fe28  1  0.254987  0.503091  0.508162  0  .  1
   Fe  Fe29  1  0.748453  0.000001  0.500000  0  .  1
   Fe  Fe30  1  0.251817  0.000001  0.500000  0  .  1
 
