#\#CIF1.1
##########################################################################
#               Crystallographic Information Format file 
#               Produced by PyCifRW module
# 
#  This is a CIF file.  CIF has been adopted by the International
#  Union of Crystallography as the standard for data archiving and 
#  transmission.
#
#  For information on this file format, follow the CIF links at
#  http://www.iucr.org
##########################################################################

data_Ca4Mn3O10
_symmetry_space_group_name_H-M          'P 1'
_cell_length_a                          5.39131537
_cell_length_b                          5.3400013
_cell_length_c                          27.05339373
_cell_angle_alpha                       90.0
_cell_angle_beta                        90.0
_cell_angle_gamma                       90.0
_chemical_name_systematic               'Generated by pymatgen'
_symmetry_Int_Tables_number             1
_chemical_formula_structural            Ca4Mn3O10
_chemical_formula_sum                   'Ca16 Mn12 O40'
_cell_volume                            778.857225071
_cell_formula_units_Z                   4
loop_
  _symmetry_equiv_pos_site_id
  _symmetry_equiv_pos_as_xyz
   1  'x, y, z'
 
loop_
  _atom_site_type_symbol
  _atom_site_label
  _atom_site_symmetry_multiplicity
  _atom_site_fract_x
  _atom_site_fract_y
  _atom_site_fract_z
  _atom_site_attached_hydrogens
  _atom_site_B_iso_or_equiv
  _atom_site_occupancy
   Ca  Ca1  1  0.459205  0.993573  0.704692  0  .  1
   Ca  Ca2  1  0.540795  0.506427  0.204692  0  .  1
   Ca  Ca3  1  0.959205  0.006427  0.795308  0  .  1
   Ca  Ca4  1  0.957390  0.493342  0.430541  0  .  1
   Ca  Ca5  1  0.042610  0.506658  0.569459  0  .  1
   Ca  Ca6  1  0.959205  0.506427  0.704692  0  .  1
   Ca  Ca7  1  0.040795  0.493573  0.295308  0  .  1
   Ca  Ca8  1  0.459205  0.493573  0.795308  0  .  1
   Ca  Ca9  1  0.540795  0.006427  0.295308  0  .  1
   Ca  Ca10  1  0.457390  0.506658  0.069459  0  .  1
   Ca  Ca11  1  0.957390  0.993342  0.069459  0  .  1
   Ca  Ca12  1  0.542610  0.993342  0.569459  0  .  1
   Ca  Ca13  1  0.457390  0.006658  0.430541  0  .  1
   Ca  Ca14  1  0.042610  0.006658  0.930541  0  .  1
   Ca  Ca15  1  0.542610  0.493342  0.930541  0  .  1
   Ca  Ca16  1  0.040795  0.993573  0.204692  0  .  1
   Mn  Mn17  1  0.001935  0.499841  0.140806  0  .  1
   Mn  Mn18  1  0.498065  0.999841  0.859194  0  .  1
   Mn  Mn19  1  0.501935  0.000159  0.140806  0  .  1
   Mn  Mn20  1  0.001935  0.999841  0.359194  0  .  1
   Mn  Mn21  1  0.998065  0.000159  0.640806  0  .  1
   Mn  Mn22  1  0.500000  0.000000  0.000000  0  .  1
   Mn  Mn23  1  0.501935  0.500159  0.359194  0  .  1
   Mn  Mn24  1  0.998065  0.500159  0.859194  0  .  1
   Mn  Mn25  1  0.000000  0.500000  0.000000  0  .  1
   Mn  Mn26  1  0.498065  0.499841  0.640806  0  .  1
   Mn  Mn27  1  0.500000  0.500000  0.500000  0  .  1
   Mn  Mn28  1  0.000000  0.000000  0.500000  0  .  1
   O  O29  1  0.508227  0.553253  0.711189  0  .  1
   O  O30  1  0.290401  0.792972  0.630232  0  .  1
   O  O31  1  0.291859  0.291258  0.150743  0  .  1
   O  O32  1  0.480630  0.424442  0.569999  0  .  1
   O  O33  1  0.790401  0.707028  0.630232  0  .  1
   O  O34  1  0.709599  0.707028  0.130232  0  .  1
   O  O35  1  0.519370  0.575558  0.430001  0  .  1
   O  O36  1  0.491773  0.446747  0.288811  0  .  1
   O  O37  1  0.792468  0.205904  0.988753  0  .  1
   O  O38  1  0.209599  0.792972  0.130232  0  .  1
   O  O39  1  0.208141  0.791258  0.849257  0  .  1
   O  O40  1  0.707532  0.705904  0.011247  0  .  1
   O  O41  1  0.019370  0.924442  0.430001  0  .  1
   O  O42  1  0.519370  0.075558  0.069999  0  .  1
   O  O43  1  0.207532  0.294096  0.488753  0  .  1
   O  O44  1  0.291859  0.791258  0.349257  0  .  1
   O  O45  1  0.991773  0.053253  0.288811  0  .  1
   O  O46  1  0.508227  0.053253  0.788811  0  .  1
   O  O47  1  0.708141  0.708742  0.849257  0  .  1
   O  O48  1  0.791859  0.708742  0.349257  0  .  1
   O  O49  1  0.792468  0.705904  0.511247  0  .  1
   O  O50  1  0.791859  0.208742  0.150743  0  .  1
   O  O51  1  0.209599  0.292972  0.369768  0  .  1
   O  O52  1  0.480630  0.924442  0.930001  0  .  1
   O  O53  1  0.292468  0.794096  0.511247  0  .  1
   O  O54  1  0.707532  0.205904  0.488753  0  .  1
   O  O55  1  0.208141  0.291258  0.650743  0  .  1
   O  O56  1  0.708141  0.208742  0.650743  0  .  1
   O  O57  1  0.709599  0.207028  0.369768  0  .  1
   O  O58  1  0.292468  0.294096  0.988753  0  .  1
   O  O59  1  0.290401  0.292972  0.869768  0  .  1
   O  O60  1  0.019370  0.424442  0.069999  0  .  1
   O  O61  1  0.790401  0.207028  0.869768  0  .  1
   O  O62  1  0.008227  0.446747  0.788811  0  .  1
   O  O63  1  0.980630  0.575558  0.930001  0  .  1
   O  O64  1  0.491773  0.946747  0.211189  0  .  1
   O  O65  1  0.991773  0.553253  0.211189  0  .  1
   O  O66  1  0.008227  0.946747  0.711189  0  .  1
   O  O67  1  0.980630  0.075558  0.569999  0  .  1
   O  O68  1  0.207532  0.794096  0.011247  0  .  1
 
