#\#CIF1.1
##########################################################################
#               Crystallographic Information Format file 
#               Produced by PyCifRW module
# 
#  This is a CIF file.  CIF has been adopted by the International
#  Union of Crystallography as the standard for data archiving and 
#  transmission.
#
#  For information on this file format, follow the CIF links at
#  http://www.iucr.org
##########################################################################

data_Ca4Mn2O7
_symmetry_space_group_name_H-M          'P 1'
_cell_length_a                          5.50159916
_cell_length_b                          6.72276305956
_cell_length_c                          10.08758192
_cell_angle_alpha                       90.0
_cell_angle_beta                        90.0
_cell_angle_gamma                       114.153141595
_chemical_name_systematic               'Generated by pymatgen'
_symmetry_Int_Tables_number             1
_chemical_formula_structural            Ca4Mn2O7
_chemical_formula_sum                   'Ca8 Mn4 O14'
_cell_volume                            340.435866282
_cell_formula_units_Z                   2
loop_
  _symmetry_equiv_pos_site_id
  _symmetry_equiv_pos_as_xyz
   1  'x, y, z'
 
loop_
  _atom_site_type_symbol
  _atom_site_label
  _atom_site_symmetry_multiplicity
  _atom_site_fract_x
  _atom_site_fract_y
  _atom_site_fract_z
  _atom_site_attached_hydrogens
  _atom_site_B_iso_or_equiv
  _atom_site_occupancy
   O  O1  1  0.500000  0.000000  0.500000  0  .  1
   O  O2  1  0.000000  0.000000  0.000000  0  .  1
   O  O3  1  0.084984  0.000000  0.695417  0  .  1
   O  O4  1  0.584984  0.000000  0.804583  0  .  1
   O  O5  1  0.415016  0.000000  0.195417  0  .  1
   O  O6  1  0.915016  0.000000  0.304583  0  .  1
   O  O7  1  0.576749  0.677051  0.119874  0  .  1
   O  O8  1  0.399697  0.322949  0.380126  0  .  1
   O  O9  1  0.923251  0.322949  0.619874  0  .  1
   O  O10  1  0.100303  0.677051  0.880126  0  .  1
   O  O11  1  0.423251  0.322949  0.880126  0  .  1
   O  O12  1  0.600303  0.677051  0.619874  0  .  1
   O  O13  1  0.899697  0.322949  0.119874  0  .  1
   O  O14  1  0.076749  0.677051  0.380126  0  .  1
   Ca  Ca15  1  0.353398  0.303118  0.125592  0  .  1
   Ca  Ca16  1  0.550280  0.696882  0.374408  0  .  1
   Ca  Ca17  1  0.146602  0.696882  0.625592  0  .  1
   Ca  Ca18  1  0.949720  0.303118  0.874408  0  .  1
   Ca  Ca19  1  0.050280  0.696882  0.125592  0  .  1
   Ca  Ca20  1  0.853398  0.303118  0.374408  0  .  1
   Ca  Ca21  1  0.449720  0.303118  0.625592  0  .  1
   Ca  Ca22  1  0.646602  0.696882  0.874408  0  .  1
   Mn  Mn23  1  0.730956  0.000000  0.124677  0  .  1
   Mn  Mn24  1  0.230956  0.000000  0.375323  0  .  1
   Mn  Mn25  1  0.769044  0.000000  0.624677  0  .  1
   Mn  Mn26  1  0.269044  0.000000  0.875323  0  .  1
 
