#\#CIF1.1
##########################################################################
#               Crystallographic Information Format file 
#               Produced by PyCifRW module
# 
#  This is a CIF file.  CIF has been adopted by the International
#  Union of Crystallography as the standard for data archiving and 
#  transmission.
#
#  For information on this file format, follow the CIF links at
#  http://www.iucr.org
##########################################################################

data_Ca5(CuO2)6
_symmetry_space_group_name_H-M          'P 1'
_cell_length_a                          6.46574543
_cell_length_b                          10.94434757
_cell_length_c                          17.0343980499
_cell_angle_alpha                       104.971444324
_cell_angle_beta                        90.0
_cell_angle_gamma                       90.0
_chemical_name_systematic               'Generated by pymatgen'
_symmetry_Int_Tables_number             1
_chemical_formula_structural            Ca5(CuO2)6
_chemical_formula_sum                   'Ca20 Cu24 O48'
_cell_volume                            1164.49328149
_cell_formula_units_Z                   4
loop_
  _symmetry_equiv_pos_site_id
  _symmetry_equiv_pos_as_xyz
   1  'x, y, z'
 
loop_
  _atom_site_type_symbol
  _atom_site_label
  _atom_site_symmetry_multiplicity
  _atom_site_fract_x
  _atom_site_fract_y
  _atom_site_fract_z
  _atom_site_attached_hydrogens
  _atom_site_B_iso_or_equiv
  _atom_site_occupancy
   O  O1  1  0.041648  0.619755  0.606694  0  .  1
   O  O2  1  0.041648  0.380245  0.893306  0  .  1
   O  O3  1  0.958352  0.380245  0.393306  0  .  1
   O  O4  1  0.958352  0.619755  0.106694  0  .  1
   O  O5  1  0.944920  0.625596  0.935390  0  .  1
   O  O6  1  0.944920  0.374404  0.564610  0  .  1
   O  O7  1  0.055080  0.374404  0.064610  0  .  1
   O  O8  1  0.055080  0.625596  0.435390  0  .  1
   O  O9  1  0.977494  0.619102  0.768608  0  .  1
   O  O10  1  0.977494  0.380898  0.731392  0  .  1
   O  O11  1  0.022506  0.380898  0.231392  0  .  1
   O  O12  1  0.022506  0.619102  0.268608  0  .  1
   O  O13  1  0.039168  0.880160  0.893191  0  .  1
   O  O14  1  0.039168  0.119840  0.606809  0  .  1
   O  O15  1  0.960832  0.119840  0.106809  0  .  1
   O  O16  1  0.960832  0.880160  0.393191  0  .  1
   O  O17  1  0.944632  0.872942  0.564382  0  .  1
   O  O18  1  0.944632  0.127058  0.935618  0  .  1
   O  O19  1  0.055368  0.127058  0.435618  0  .  1
   O  O20  1  0.055368  0.872942  0.064382  0  .  1
   O  O21  1  0.973694  0.881404  0.731733  0  .  1
   O  O22  1  0.973694  0.118596  0.768267  0  .  1
   O  O23  1  0.026306  0.118596  0.268267  0  .  1
   O  O24  1  0.026306  0.881404  0.231733  0  .  1
   O  O25  1  0.556698  0.875554  0.977187  0  .  1
   O  O26  1  0.556698  0.124446  0.522813  0  .  1
   O  O27  1  0.443302  0.124446  0.022813  0  .  1
   O  O28  1  0.443302  0.875554  0.477187  0  .  1
   O  O29  1  0.453743  0.875809  0.650517  0  .  1
   O  O30  1  0.453743  0.124191  0.849483  0  .  1
   O  O31  1  0.546257  0.124191  0.349483  0  .  1
   O  O32  1  0.546257  0.875809  0.150517  0  .  1
   O  O33  1  0.504709  0.883615  0.812688  0  .  1
   O  O34  1  0.504709  0.116385  0.687312  0  .  1
   O  O35  1  0.495291  0.116385  0.187312  0  .  1
   O  O36  1  0.495291  0.883615  0.312688  0  .  1
   O  O37  1  0.557956  0.624280  0.522357  0  .  1
   O  O38  1  0.557956  0.375720  0.977643  0  .  1
   O  O39  1  0.442044  0.375720  0.477643  0  .  1
   O  O40  1  0.442044  0.624280  0.022357  0  .  1
   O  O41  1  0.456183  0.623525  0.849571  0  .  1
   O  O42  1  0.456183  0.376475  0.650429  0  .  1
   O  O43  1  0.543817  0.376475  0.150429  0  .  1
   O  O44  1  0.543817  0.623525  0.349571  0  .  1
   O  O45  1  0.509027  0.616793  0.687561  0  .  1
   O  O46  1  0.509027  0.383207  0.812439  0  .  1
   O  O47  1  0.490973  0.383207  0.312439  0  .  1
   O  O48  1  0.490973  0.616793  0.187561  0  .  1
   Ca  Ca49  1  0.249773  0.747518  0.547126  0  .  1
   Ca  Ca50  1  0.249773  0.252482  0.952874  0  .  1
   Ca  Ca51  1  0.750227  0.252482  0.452874  0  .  1
   Ca  Ca52  1  0.750227  0.747518  0.047126  0  .  1
   Ca  Ca53  1  0.248707  0.752240  0.951072  0  .  1
   Ca  Ca54  1  0.248707  0.247760  0.548928  0  .  1
   Ca  Ca55  1  0.751293  0.247760  0.048928  0  .  1
   Ca  Ca56  1  0.751293  0.752240  0.451072  0  .  1
   Ca  Ca57  1  0.253927  0.745442  0.144239  0  .  1
   Ca  Ca58  1  0.253927  0.254558  0.355761  0  .  1
   Ca  Ca59  1  0.746073  0.254558  0.855761  0  .  1
   Ca  Ca60  1  0.746073  0.745442  0.644239  0  .  1
   Ca  Ca61  1  0.254663  0.754710  0.353701  0  .  1
   Ca  Ca62  1  0.254663  0.245290  0.146299  0  .  1
   Ca  Ca63  1  0.745337  0.245290  0.646299  0  .  1
   Ca  Ca64  1  0.745337  0.754710  0.853701  0  .  1
   Ca  Ca65  1  0.243855  0.750045  0.748561  0  .  1
   Ca  Ca66  1  0.243855  0.249955  0.751439  0  .  1
   Ca  Ca67  1  0.756145  0.249955  0.251439  0  .  1
   Ca  Ca68  1  0.756145  0.750045  0.248561  0  .  1
   Cu  Cu69  1  0.000000  0.000000  0.000000  0  .  1
   Cu  Cu70  1  0.000000  0.000000  0.500000  0  .  1
   Cu  Cu71  1  0.985478  0.002634  0.834709  0  .  1
   Cu  Cu72  1  0.985478  0.997366  0.665291  0  .  1
   Cu  Cu73  1  0.014522  0.997366  0.165291  0  .  1
   Cu  Cu74  1  0.014522  0.002634  0.334709  0  .  1
   Cu  Cu75  1  0.488431  0.003009  0.918108  0  .  1
   Cu  Cu76  1  0.488431  0.996991  0.581892  0  .  1
   Cu  Cu77  1  0.511569  0.996991  0.081892  0  .  1
   Cu  Cu78  1  0.511569  0.003009  0.418108  0  .  1
   Cu  Cu79  1  0.485376  0.000000  0.750000  0  .  1
   Cu  Cu80  1  0.514624  0.000000  0.250000  0  .  1
   Cu  Cu81  1  0.000000  0.500000  0.000000  0  .  1
   Cu  Cu82  1  0.000000  0.500000  0.500000  0  .  1
   Cu  Cu83  1  0.987452  0.502259  0.834291  0  .  1
   Cu  Cu84  1  0.987452  0.497741  0.665709  0  .  1
   Cu  Cu85  1  0.012548  0.497741  0.165709  0  .  1
   Cu  Cu86  1  0.012548  0.502259  0.334291  0  .  1
   Cu  Cu87  1  0.489956  0.502599  0.917983  0  .  1
   Cu  Cu88  1  0.489956  0.497401  0.582017  0  .  1
   Cu  Cu89  1  0.510044  0.497401  0.082017  0  .  1
   Cu  Cu90  1  0.510044  0.502599  0.417983  0  .  1
   Cu  Cu91  1  0.487699  0.500000  0.750000  0  .  1
   Cu  Cu92  1  0.512301  0.500000  0.250000  0  .  1
 
