#\#CIF1.1
##########################################################################
#               Crystallographic Information Format file 
#               Produced by PyCifRW module
# 
#  This is a CIF file.  CIF has been adopted by the International
#  Union of Crystallography as the standard for data archiving and 
#  transmission.
#
#  For information on this file format, follow the CIF links at
#  http://www.iucr.org
##########################################################################

data_Ca5Mn8O13
_symmetry_space_group_name_H-M          'P 1'
_cell_length_a                          3.29077539901
_cell_length_b                          3.29077539901
_cell_length_c                          34.5519829948
_cell_angle_alpha                       92.7294942361
_cell_angle_beta                        90.0
_cell_angle_gamma                       120.0
_chemical_name_systematic               'Generated by pymatgen'
_symmetry_Int_Tables_number             1
_chemical_formula_structural            Ca5Mn8O13
_chemical_formula_sum                   'Ca5 Mn8 O13'
_cell_volume                            323.550834618
_cell_formula_units_Z                   1
loop_
  _symmetry_equiv_pos_site_id
  _symmetry_equiv_pos_as_xyz
   1  'x, y, z'
 
loop_
  _atom_site_type_symbol
  _atom_site_label
  _atom_site_symmetry_multiplicity
  _atom_site_fract_x
  _atom_site_fract_y
  _atom_site_fract_z
  _atom_site_attached_hydrogens
  _atom_site_B_iso_or_equiv
  _atom_site_occupancy
   Ca  Ca1  1  0.461025  0.922052  0.383077  0  .  1
   Ca  Ca2  1  0.537297  0.074592  0.611889  0  .  1
   Ca  Ca3  1  0.921790  0.843580  0.765370  0  .  1
   Ca  Ca4  1  0.310016  0.620031  0.930048  0  .  1
   Ca  Ca5  1  0.615872  0.231744  0.847616  0  .  1
   Mn  Mn6  1  0.002425  0.004850  0.007275  0  .  1
   Mn  Mn7  1  0.693648  0.387296  0.080944  0  .  1
   Mn  Mn8  1  0.385012  0.770024  0.155036  0  .  1
   Mn  Mn9  1  0.076522  0.153044  0.229564  0  .  1
   Mn  Mn10  1  0.768141  0.536283  0.304424  0  .  1
   Mn  Mn11  1  0.153750  0.307499  0.461249  0  .  1
   Mn  Mn12  1  0.844958  0.689915  0.534874  0  .  1
   Mn  Mn13  1  0.229556  0.459111  0.688667  0  .  1
   O  O14  1  0.347980  0.695961  0.043941  0  .  1
   O  O15  1  0.039262  0.078524  0.117786  0  .  1
   O  O16  1  0.730709  0.461419  0.192128  0  .  1
   O  O17  1  0.422293  0.844586  0.266879  0  .  1
   O  O18  1  0.113932  0.227865  0.341798  0  .  1
   O  O19  1  0.808049  0.616099  0.424148  0  .  1
   O  O20  1  0.190557  0.381114  0.571671  0  .  1
   O  O21  1  0.499419  0.998838  0.498256  0  .  1
   O  O22  1  0.884152  0.768304  0.652456  0  .  1
   O  O23  1  0.575056  0.150112  0.725168  0  .  1
   O  O24  1  0.268847  0.537694  0.806541  0  .  1
   O  O25  1  0.962910  0.925820  0.888730  0  .  1
   O  O26  1  0.656822  0.313644  0.970466  0  .  1
 
