#\#CIF1.1
##########################################################################
#               Crystallographic Information Format file 
#               Produced by PyCifRW module
# 
#  This is a CIF file.  CIF has been adopted by the International
#  Union of Crystallography as the standard for data archiving and 
#  transmission.
#
#  For information on this file format, follow the CIF links at
#  http://www.iucr.org
##########################################################################

data_Ca5Mn4O9
_symmetry_space_group_name_H-M          'P 1'
_cell_length_a                          3.32966894502
_cell_length_b                          8.79483994404
_cell_length_c                          8.72088390374
_cell_angle_alpha                       68.8542187621
_cell_angle_beta                        100.967236698
_cell_angle_gamma                       101.004187067
_chemical_name_systematic               'Generated by pymatgen'
_symmetry_Int_Tables_number             1
_chemical_formula_structural            Ca5Mn4O9
_chemical_formula_sum                   'Ca5 Mn4 O9'
_cell_volume                            231.741812569
_cell_formula_units_Z                   1
loop_
  _symmetry_equiv_pos_site_id
  _symmetry_equiv_pos_as_xyz
   1  'x, y, z'
 
loop_
  _atom_site_type_symbol
  _atom_site_label
  _atom_site_symmetry_multiplicity
  _atom_site_fract_x
  _atom_site_fract_y
  _atom_site_fract_z
  _atom_site_attached_hydrogens
  _atom_site_B_iso_or_equiv
  _atom_site_occupancy
   Ca  Ca1  1  0.673587  0.668962  0.676142  0  .  1
   Ca  Ca2  1  0.004593  0.325383  0.676335  0  .  1
   Ca  Ca3  1  0.003627  0.669014  0.327596  0  .  1
   Ca  Ca4  1  0.337373  0.334662  0.328246  0  .  1
   Ca  Ca5  1  0.668566  0.002608  0.328041  0  .  1
   Mn  Mn6  1  0.332014  0.999309  0.668955  0  .  1
   Mn  Mn7  1  0.333864  0.669692  0.999812  0  .  1
   Mn  Mn8  1  0.668395  0.334100  0.001056  0  .  1
   Mn  Mn9  1  0.991433  0.999089  0.995278  0  .  1
   O  O10  1  0.831915  0.839216  0.837521  0  .  1
   O  O11  1  0.171500  0.496209  0.847864  0  .  1
   O  O12  1  0.173335  0.837820  0.503621  0  .  1
   O  O13  1  0.499753  0.155840  0.841724  0  .  1
   O  O14  1  0.505439  0.499580  0.500533  0  .  1
   O  O15  1  0.500489  0.835192  0.155549  0  .  1
   O  O16  1  0.839138  0.160713  0.505574  0  .  1
   O  O17  1  0.836415  0.504797  0.155453  0  .  1
   O  O18  1  0.167498  0.172084  0.154479  0  .  1
 
