#\#CIF1.1
##########################################################################
#               Crystallographic Information Format file 
#               Produced by PyCifRW module
# 
#  This is a CIF file.  CIF has been adopted by the International
#  Union of Crystallography as the standard for data archiving and 
#  transmission.
#
#  For information on this file format, follow the CIF links at
#  http://www.iucr.org
##########################################################################

data_CaMn7O12
_symmetry_space_group_name_H-M          'P 1'
_cell_length_a                          6.49954513506
_cell_length_b                          6.49954513345
_cell_length_c                          6.49954512873
_cell_angle_alpha                       109.473239131
_cell_angle_beta                        109.47323911
_cell_angle_gamma                       109.473239212
_chemical_name_systematic               'Generated by pymatgen'
_symmetry_Int_Tables_number             1
_chemical_formula_structural            CaMn7O12
_chemical_formula_sum                   'Ca1 Mn7 O12'
_cell_volume                            211.346246923
_cell_formula_units_Z                   1
loop_
  _symmetry_equiv_pos_site_id
  _symmetry_equiv_pos_as_xyz
   1  'x, y, z'
 
loop_
  _atom_site_type_symbol
  _atom_site_label
  _atom_site_symmetry_multiplicity
  _atom_site_fract_x
  _atom_site_fract_y
  _atom_site_fract_z
  _atom_site_attached_hydrogens
  _atom_site_B_iso_or_equiv
  _atom_site_occupancy
   O  O1  1  0.486116  0.178367  0.308567  0  .  1
   O  O2  1  0.178367  0.308567  0.486116  0  .  1
   O  O3  1  0.308567  0.486116  0.178367  0  .  1
   O  O4  1  0.513884  0.821633  0.691433  0  .  1
   O  O5  1  0.821633  0.691433  0.513884  0  .  1
   O  O6  1  0.691433  0.513884  0.821633  0  .  1
   O  O7  1  0.869947  0.179382  0.691372  0  .  1
   O  O8  1  0.179382  0.691372  0.869947  0  .  1
   O  O9  1  0.308628  0.130053  0.820618  0  .  1
   O  O10  1  0.820618  0.308628  0.130053  0  .  1
   O  O11  1  0.130053  0.820618  0.308628  0  .  1
   O  O12  1  0.691372  0.869947  0.179382  0  .  1
   Ca  Ca13  1  0.000000  0.000000  0.000000  0  .  1
   Mn  Mn14  1  0.000000  0.500000  0.000000  0  .  1
   Mn  Mn15  1  0.500000  0.000000  0.000000  0  .  1
   Mn  Mn16  1  0.000000  0.000000  0.500000  0  .  1
   Mn  Mn17  1  0.500000  0.000000  0.500000  0  .  1
   Mn  Mn18  1  0.000000  0.500000  0.500000  0  .  1
   Mn  Mn19  1  0.500000  0.500000  0.000000  0  .  1
   Mn  Mn20  1  0.500000  0.500000  0.500000  0  .  1
 
