#\#CIF1.1
##########################################################################
#               Crystallographic Information Format file 
#               Produced by PyCifRW module
# 
#  This is a CIF file.  CIF has been adopted by the International
#  Union of Crystallography as the standard for data archiving and 
#  transmission.
#
#  For information on this file format, follow the CIF links at
#  http://www.iucr.org
##########################################################################

data_CaMnO3
_symmetry_space_group_name_H-M          'P 1'
_cell_length_a                          5.33408731
_cell_length_b                          5.4110244
_cell_length_c                          7.56921595
_cell_angle_alpha                       90.0
_cell_angle_beta                        90.0
_cell_angle_gamma                       90.0
_chemical_name_systematic               'Generated by pymatgen'
_symmetry_Int_Tables_number             1
_chemical_formula_structural            CaMnO3
_chemical_formula_sum                   'Ca4 Mn4 O12'
_cell_volume                            218.469345819
_cell_formula_units_Z                   4
loop_
  _symmetry_equiv_pos_site_id
  _symmetry_equiv_pos_as_xyz
   1  'x, y, z'
 
loop_
  _atom_site_type_symbol
  _atom_site_label
  _atom_site_symmetry_multiplicity
  _atom_site_fract_x
  _atom_site_fract_y
  _atom_site_fract_z
  _atom_site_attached_hydrogens
  _atom_site_B_iso_or_equiv
  _atom_site_occupancy
   O  O1  1  0.293882  0.708048  0.458862  0  .  1
   O  O2  1  0.793882  0.791952  0.541138  0  .  1
   O  O3  1  0.206118  0.208048  0.041138  0  .  1
   O  O4  1  0.706118  0.291952  0.958862  0  .  1
   O  O5  1  0.706118  0.291952  0.541138  0  .  1
   O  O6  1  0.206118  0.208048  0.458862  0  .  1
   O  O7  1  0.793882  0.791952  0.958862  0  .  1
   O  O8  1  0.293882  0.708048  0.041138  0  .  1
   O  O9  1  0.920594  0.519651  0.250000  0  .  1
   O  O10  1  0.420594  0.980349  0.750000  0  .  1
   O  O11  1  0.579406  0.019651  0.250000  0  .  1
   O  O12  1  0.079406  0.480349  0.750000  0  .  1
   Ca  Ca13  1  0.009493  0.953966  0.250000  0  .  1
   Ca  Ca14  1  0.509493  0.546034  0.750000  0  .  1
   Ca  Ca15  1  0.490507  0.453966  0.250000  0  .  1
   Ca  Ca16  1  0.990507  0.046034  0.750000  0  .  1
   Mn  Mn17  1  0.500000  0.000000  0.000000  0  .  1
   Mn  Mn18  1  0.000000  0.500000  0.000000  0  .  1
   Mn  Mn19  1  0.000000  0.500000  0.500000  0  .  1
   Mn  Mn20  1  0.500000  0.000000  0.500000  0  .  1
 
