#\#CIF1.1
##########################################################################
#               Crystallographic Information Format file 
#               Produced by PyCifRW module
# 
#  This is a CIF file.  CIF has been adopted by the International
#  Union of Crystallography as the standard for data archiving and 
#  transmission.
#
#  For information on this file format, follow the CIF links at
#  http://www.iucr.org
##########################################################################

data_CaV2O4
_symmetry_space_group_name_H-M          'P 1'
_cell_length_a                          3.05306202
_cell_length_b                          9.43433734
_cell_length_c                          10.82880685
_cell_angle_alpha                       90.0
_cell_angle_beta                        90.0
_cell_angle_gamma                       90.0
_chemical_name_systematic               'Generated by pymatgen'
_symmetry_Int_Tables_number             1
_chemical_formula_structural            CaV2O4
_chemical_formula_sum                   'Ca4 V8 O16'
_cell_volume                            311.908805254
_cell_formula_units_Z                   4
loop_
  _symmetry_equiv_pos_site_id
  _symmetry_equiv_pos_as_xyz
   1  'x, y, z'
 
loop_
  _atom_site_type_symbol
  _atom_site_label
  _atom_site_symmetry_multiplicity
  _atom_site_fract_x
  _atom_site_fract_y
  _atom_site_fract_z
  _atom_site_attached_hydrogens
  _atom_site_B_iso_or_equiv
  _atom_site_occupancy
   V  V1  1  0.750000  0.934449  0.886571  0  .  1
   V  V2  1  0.250000  0.065551  0.113429  0  .  1
   V  V3  1  0.750000  0.434449  0.613429  0  .  1
   V  V4  1  0.250000  0.565551  0.386571  0  .  1
   V  V5  1  0.750000  0.917013  0.395696  0  .  1
   V  V6  1  0.250000  0.082987  0.604304  0  .  1
   V  V7  1  0.750000  0.417013  0.104304  0  .  1
   V  V8  1  0.250000  0.582987  0.895696  0  .  1
   Ca  Ca9  1  0.750000  0.753608  0.654529  0  .  1
   Ca  Ca10  1  0.250000  0.246392  0.345471  0  .  1
   Ca  Ca11  1  0.750000  0.253608  0.845471  0  .  1
   Ca  Ca12  1  0.250000  0.746392  0.154529  0  .  1
   O  O13  1  0.750000  0.703679  0.330274  0  .  1
   O  O14  1  0.250000  0.296321  0.669726  0  .  1
   O  O15  1  0.750000  0.203679  0.169726  0  .  1
   O  O16  1  0.250000  0.796321  0.830274  0  .  1
   O  O17  1  0.750000  0.619846  0.020734  0  .  1
   O  O18  1  0.250000  0.380154  0.979266  0  .  1
   O  O19  1  0.750000  0.119846  0.479266  0  .  1
   O  O20  1  0.250000  0.880154  0.520734  0  .  1
   O  O21  1  0.750000  0.525563  0.783508  0  .  1
   O  O22  1  0.250000  0.474437  0.216492  0  .  1
   O  O23  1  0.750000  0.025563  0.716492  0  .  1
   O  O24  1  0.250000  0.974437  0.283508  0  .  1
   O  O25  1  0.750000  0.918845  0.072395  0  .  1
   O  O26  1  0.250000  0.081155  0.927605  0  .  1
   O  O27  1  0.750000  0.418845  0.427605  0  .  1
   O  O28  1  0.250000  0.581155  0.572395  0  .  1
 
