#\#CIF1.1
##########################################################################
#               Crystallographic Information Format file 
#               Produced by PyCifRW module
# 
#  This is a CIF file.  CIF has been adopted by the International
#  Union of Crystallography as the standard for data archiving and 
#  transmission.
#
#  For information on this file format, follow the CIF links at
#  http://www.iucr.org
##########################################################################

data_CaV2O6
_symmetry_space_group_name_H-M          'P 1'
_cell_length_a                          3.69740855
_cell_length_b                          5.55279583842
_cell_length_c                          7.26500033883
_cell_angle_alpha                       102.059079929
_cell_angle_beta                        90.0
_cell_angle_gamma                       109.446842156
_chemical_name_systematic               'Generated by pymatgen'
_symmetry_Int_Tables_number             1
_chemical_formula_structural            CaV2O6
_chemical_formula_sum                   'Ca1 V2 O6'
_cell_volume                            137.152517786
_cell_formula_units_Z                   1
loop_
  _symmetry_equiv_pos_site_id
  _symmetry_equiv_pos_as_xyz
   1  'x, y, z'
 
loop_
  _atom_site_type_symbol
  _atom_site_label
  _atom_site_symmetry_multiplicity
  _atom_site_fract_x
  _atom_site_fract_y
  _atom_site_fract_z
  _atom_site_attached_hydrogens
  _atom_site_B_iso_or_equiv
  _atom_site_occupancy
   O  O1  1  0.755608  0.511216  0.603311  0  .  1
   O  O2  1  0.244392  0.488784  0.396688  0  .  1
   O  O3  1  0.367882  0.735764  0.867406  0  .  1
   O  O4  1  0.100444  0.200888  0.741279  0  .  1
   O  O5  1  0.632118  0.264236  0.132593  0  .  1
   O  O6  1  0.899556  0.799112  0.258720  0  .  1
   Ca  Ca7  1  0.000000  0.000000  0.000000  0  .  1
   V  V8  1  0.241250  0.482499  0.672364  0  .  1
   V  V9  1  0.758750  0.517501  0.327636  0  .  1
 
