#\#CIF1.1
##########################################################################
#               Crystallographic Information Format file 
#               Produced by PyCifRW module
# 
#  This is a CIF file.  CIF has been adopted by the International
#  Union of Crystallography as the standard for data archiving and 
#  transmission.
#
#  For information on this file format, follow the CIF links at
#  http://www.iucr.org
##########################################################################

data_CaVO3
_symmetry_space_group_name_H-M          'P 1'
_cell_length_a                          5.46467809
_cell_length_b                          5.33834393
_cell_length_c                          7.71530924
_cell_angle_alpha                       90.0
_cell_angle_beta                        90.0
_cell_angle_gamma                       90.0
_chemical_name_systematic               'Generated by pymatgen'
_symmetry_Int_Tables_number             1
_chemical_formula_structural            CaVO3
_chemical_formula_sum                   'Ca4 V4 O12'
_cell_volume                            225.073555774
_cell_formula_units_Z                   4
loop_
  _symmetry_equiv_pos_site_id
  _symmetry_equiv_pos_as_xyz
   1  'x, y, z'
 
loop_
  _atom_site_type_symbol
  _atom_site_label
  _atom_site_symmetry_multiplicity
  _atom_site_fract_x
  _atom_site_fract_y
  _atom_site_fract_z
  _atom_site_attached_hydrogens
  _atom_site_B_iso_or_equiv
  _atom_site_occupancy
   O  O1  1  0.797953  0.785984  0.463324  0  .  1
   O  O2  1  0.297951  0.714015  0.036676  0  .  1
   O  O3  1  0.702048  0.285985  0.536676  0  .  1
   O  O4  1  0.202048  0.214015  0.963325  0  .  1
   O  O5  1  0.202048  0.214015  0.536676  0  .  1
   O  O6  1  0.702048  0.285985  0.963325  0  .  1
   O  O7  1  0.297951  0.714015  0.463324  0  .  1
   O  O8  1  0.797953  0.785984  0.036676  0  .  1
   O  O9  1  0.516642  0.922535  0.750000  0  .  1
   O  O10  1  0.016643  0.577466  0.750000  0  .  1
   O  O11  1  0.483357  0.077466  0.250001  0  .  1
   O  O12  1  0.983359  0.422533  0.250001  0  .  1
   Ca  Ca13  1  0.954586  0.006716  0.750000  0  .  1
   Ca  Ca14  1  0.454586  0.493283  0.750000  0  .  1
   Ca  Ca15  1  0.545415  0.506716  0.250001  0  .  1
   Ca  Ca16  1  0.045416  0.993285  0.250001  0  .  1
   V  V17  1  0.500000  0.000000  0.000000  0  .  1
   V  V18  1  0.000000  0.500000  0.500000  0  .  1
   V  V19  1  0.000000  0.500000  0.000000  0  .  1
   V  V20  1  0.500000  0.000000  0.500000  0  .  1
 
