#\#CIF1.1
##########################################################################
#               Crystallographic Information Format file 
#               Produced by PyCifRW module
# 
#  This is a CIF file.  CIF has been adopted by the International
#  Union of Crystallography as the standard for data archiving and 
#  transmission.
#
#  For information on this file format, follow the CIF links at
#  http://www.iucr.org
##########################################################################

data_CdBr2
_symmetry_space_group_name_H-M          'P 1'
_cell_length_a                          13.7724967545
_cell_length_b                          13.7724968932
_cell_length_c                          13.7724968631
_cell_angle_alpha                       16.9929793127
_cell_angle_beta                        16.9929775159
_cell_angle_gamma                       16.9929783089
_chemical_name_systematic               'Generated by pymatgen'
_symmetry_Int_Tables_number             1
_chemical_formula_structural            CdBr2
_chemical_formula_sum                   'Cd2 Br4'
_cell_volume                            194.653621677
_cell_formula_units_Z                   2
loop_
  _symmetry_equiv_pos_site_id
  _symmetry_equiv_pos_as_xyz
   1  'x, y, z'
 
loop_
  _atom_site_type_symbol
  _atom_site_label
  _atom_site_symmetry_multiplicity
  _atom_site_fract_x
  _atom_site_fract_y
  _atom_site_fract_z
  _atom_site_attached_hydrogens
  _atom_site_B_iso_or_equiv
  _atom_site_occupancy
   Cd  Cd1  1  0.000000  0.000000  0.000000  0  .  1
   Cd  Cd2  1  0.500000  0.500000  0.500000  0  .  1
   Br  Br3  1  0.205362  0.205362  0.205362  0  .  1
   Br  Br4  1  0.794638  0.794638  0.794638  0  .  1
   Br  Br5  1  0.627972  0.627972  0.627972  0  .  1
   Br  Br6  1  0.372028  0.372028  0.372028  0  .  1
 
