#\#CIF1.1
##########################################################################
#               Crystallographic Information Format file 
#               Produced by PyCifRW module
# 
#  This is a CIF file.  CIF has been adopted by the International
#  Union of Crystallography as the standard for data archiving and 
#  transmission.
#
#  For information on this file format, follow the CIF links at
#  http://www.iucr.org
##########################################################################

data_CdI2
_symmetry_space_group_name_H-M          'P 1'
_cell_length_a                          4.33697914
_cell_length_b                          4.33697940767
_cell_length_c                          116.34162628
_cell_angle_alpha                       90.0
_cell_angle_beta                        90.0
_cell_angle_gamma                       119.999997958
_chemical_name_systematic               'Generated by pymatgen'
_symmetry_Int_Tables_number             1
_chemical_formula_structural            CdI2
_chemical_formula_sum                   'Cd15 I30'
_cell_volume                            1895.13636105
_cell_formula_units_Z                   15
loop_
  _symmetry_equiv_pos_site_id
  _symmetry_equiv_pos_as_xyz
   1  'x, y, z'
 
loop_
  _atom_site_type_symbol
  _atom_site_label
  _atom_site_symmetry_multiplicity
  _atom_site_fract_x
  _atom_site_fract_y
  _atom_site_fract_z
  _atom_site_attached_hydrogens
  _atom_site_B_iso_or_equiv
  _atom_site_occupancy
   Cd  Cd1  1  0.666667  0.333333  0.016739  0  .  1
   Cd  Cd2  1  0.000000  0.000000  0.483108  0  .  1
   Cd  Cd3  1  0.000000  0.000000  0.950104  0  .  1
   Cd  Cd4  1  0.666667  0.333333  0.616604  0  .  1
   Cd  Cd5  1  0.000000  0.000000  0.816797  0  .  1
   Cd  Cd6  1  0.000000  0.000000  0.350115  0  .  1
   Cd  Cd7  1  0.666667  0.333333  0.283320  0  .  1
   Cd  Cd8  1  0.000000  0.000000  0.683302  0  .  1
   Cd  Cd9  1  0.000000  0.000000  0.216600  0  .  1
   Cd  Cd10  1  0.666667  0.333333  0.550091  0  .  1
   Cd  Cd11  1  0.666667  0.333333  0.149853  0  .  1
   Cd  Cd12  1  0.000000  0.000000  0.083240  0  .  1
   Cd  Cd13  1  0.000000  0.000000  0.883432  0  .  1
   Cd  Cd14  1  0.666667  0.333333  0.416634  0  .  1
   Cd  Cd15  1  0.666667  0.333333  0.750070  0  .  1
   I  I16  1  0.000000  0.000000  0.735270  0  .  1
   I  I17  1  0.333333  0.666667  0.564873  0  .  1
   I  I18  1  0.000000  0.000000  0.401827  0  .  1
   I  I19  1  0.333333  0.666667  0.431430  0  .  1
   I  I20  1  0.666667  0.333333  0.335325  0  .  1
   I  I21  1  0.333333  0.666667  0.364898  0  .  1
   I  I22  1  0.333333  0.666667  0.898208  0  .  1
   I  I23  1  0.333333  0.666667  0.964884  0  .  1
   I  I24  1  0.333333  0.666667  0.231386  0  .  1
   I  I25  1  0.000000  0.000000  0.535306  0  .  1
   I  I26  1  0.666667  0.333333  0.802009  0  .  1
   I  I27  1  0.333333  0.666667  0.698090  0  .  1
   I  I28  1  0.000000  0.000000  0.601815  0  .  1
   I  I29  1  0.666667  0.333333  0.868649  0  .  1
   I  I30  1  0.333333  0.666667  0.764875  0  .  1
   I  I31  1  0.666667  0.333333  0.468333  0  .  1
   I  I32  1  0.333333  0.666667  0.631392  0  .  1
   I  I33  1  0.666667  0.333333  0.201817  0  .  1
   I  I34  1  0.333333  0.666667  0.098028  0  .  1
   I  I35  1  0.000000  0.000000  0.001949  0  .  1
   I  I36  1  0.000000  0.000000  0.135058  0  .  1
   I  I37  1  0.666667  0.333333  0.068458  0  .  1
   I  I38  1  0.333333  0.666667  0.031523  0  .  1
   I  I39  1  0.000000  0.000000  0.268529  0  .  1
   I  I40  1  0.333333  0.666667  0.298106  0  .  1
   I  I41  1  0.666667  0.333333  0.935312  0  .  1
   I  I42  1  0.333333  0.666667  0.831575  0  .  1
   I  I43  1  0.666667  0.333333  0.668519  0  .  1
   I  I44  1  0.333333  0.666667  0.164642  0  .  1
   I  I45  1  0.333333  0.666667  0.497903  0  .  1
 
