#\#CIF1.1
##########################################################################
#               Crystallographic Information Format file 
#               Produced by PyCifRW module
# 
#  This is a CIF file.  CIF has been adopted by the International
#  Union of Crystallography as the standard for data archiving and 
#  transmission.
#
#  For information on this file format, follow the CIF links at
#  http://www.iucr.org
##########################################################################

data_Co2RhS4
_symmetry_space_group_name_H-M          'P 1'
_cell_length_a                          6.73750112526
_cell_length_b                          6.70609501124
_cell_length_c                          6.73750205038
_cell_angle_alpha                       60.1540798774
_cell_angle_beta                        60.2625738133
_cell_angle_gamma                       60.1540824674
_chemical_name_systematic               'Generated by pymatgen'
_symmetry_Int_Tables_number             1
_chemical_formula_structural            Co2RhS4
_chemical_formula_sum                   'Co4 Rh2 S8'
_cell_volume                            216.181443979
_cell_formula_units_Z                   2
loop_
  _symmetry_equiv_pos_site_id
  _symmetry_equiv_pos_as_xyz
   1  'x, y, z'
 
loop_
  _atom_site_type_symbol
  _atom_site_label
  _atom_site_symmetry_multiplicity
  _atom_site_fract_x
  _atom_site_fract_y
  _atom_site_fract_z
  _atom_site_attached_hydrogens
  _atom_site_B_iso_or_equiv
  _atom_site_occupancy
   Co  Co1  1  0.001241  0.998759  0.001241  0  .  1
   Co  Co2  1  0.248759  0.251241  0.248759  0  .  1
   Co  Co3  1  0.625000  0.125000  0.625000  0  .  1
   Co  Co4  1  0.625000  0.625000  0.625000  0  .  1
   Rh  Rh5  1  0.125000  0.625000  0.625000  0  .  1
   Rh  Rh6  1  0.625000  0.625000  0.125000  0  .  1
   S  S7  1  0.384982  0.367364  0.384982  0  .  1
   S  S8  1  0.392035  0.374338  0.859288  0  .  1
   S  S9  1  0.384982  0.862672  0.384982  0  .  1
   S  S10  1  0.859288  0.374338  0.392035  0  .  1
   S  S11  1  0.390712  0.875662  0.857965  0  .  1
   S  S12  1  0.865018  0.387328  0.865018  0  .  1
   S  S13  1  0.857965  0.875662  0.390712  0  .  1
   S  S14  1  0.865018  0.882636  0.865018  0  .  1
 
