#\#CIF1.1
##########################################################################
#               Crystallographic Information Format file 
#               Produced by PyCifRW module
# 
#  This is a CIF file.  CIF has been adopted by the International
#  Union of Crystallography as the standard for data archiving and 
#  transmission.
#
#  For information on this file format, follow the CIF links at
#  http://www.iucr.org
##########################################################################

data_CrAgS2
_symmetry_space_group_name_H-M          'P 1'
_cell_length_a                          7.10786784254
_cell_length_b                          7.10786784296
_cell_length_c                          7.1078678388
_cell_angle_alpha                       28.9037807974
_cell_angle_beta                        28.903780752
_cell_angle_gamma                       28.9037808061
_chemical_name_systematic               'Generated by pymatgen'
_symmetry_Int_Tables_number             1
_chemical_formula_structural            CrAgS2
_chemical_formula_sum                   'Cr1 Ag1 S2'
_cell_volume                            74.191981771
_cell_formula_units_Z                   1
loop_
  _symmetry_equiv_pos_site_id
  _symmetry_equiv_pos_as_xyz
   1  'x, y, z'
 
loop_
  _atom_site_type_symbol
  _atom_site_label
  _atom_site_symmetry_multiplicity
  _atom_site_fract_x
  _atom_site_fract_y
  _atom_site_fract_z
  _atom_site_attached_hydrogens
  _atom_site_B_iso_or_equiv
  _atom_site_occupancy
   S  S1  1  0.732959  0.732959  0.732959  0  .  1
   S  S2  1  0.273551  0.273551  0.273551  0  .  1
   Cr  Cr3  1  0.000772  0.000772  0.000772  0  .  1
   Ag  Ag4  1  0.154117  0.154117  0.154117  0  .  1
 
