#\#CIF1.1
##########################################################################
#               Crystallographic Information Format file 
#               Produced by PyCifRW module
# 
#  This is a CIF file.  CIF has been adopted by the International
#  Union of Crystallography as the standard for data archiving and 
#  transmission.
#
#  For information on this file format, follow the CIF links at
#  http://www.iucr.org
##########################################################################

data_CrAgSe2
_symmetry_space_group_name_H-M          'P 1'
_cell_length_a                          7.89549445819
_cell_length_b                          7.8954946798
_cell_length_c                          7.89549511131
_cell_angle_alpha                       26.2498893734
_cell_angle_beta                        26.2498866917
_cell_angle_gamma                       26.2498850422
_chemical_name_systematic               'Generated by pymatgen'
_symmetry_Int_Tables_number             1
_chemical_formula_structural            CrAgSe2
_chemical_formula_sum                   'Cr1 Ag1 Se2'
_cell_volume                            84.840145041
_cell_formula_units_Z                   1
loop_
  _symmetry_equiv_pos_site_id
  _symmetry_equiv_pos_as_xyz
   1  'x, y, z'
 
loop_
  _atom_site_type_symbol
  _atom_site_label
  _atom_site_symmetry_multiplicity
  _atom_site_fract_x
  _atom_site_fract_y
  _atom_site_fract_z
  _atom_site_attached_hydrogens
  _atom_site_B_iso_or_equiv
  _atom_site_occupancy
   Cr  Cr1  1  0.742609  0.742609  0.742609  0  .  1
   Ag  Ag2  1  0.252094  0.252094  0.252094  0  .  1
   Se  Se3  1  0.139517  0.139517  0.139517  0  .  1
   Se  Se4  1  0.005779  0.005779  0.005779  0  .  1
 
