#\#CIF1.1
##########################################################################
#               Crystallographic Information Format file 
#               Produced by PyCifRW module
# 
#  This is a CIF file.  CIF has been adopted by the International
#  Union of Crystallography as the standard for data archiving and 
#  transmission.
#
#  For information on this file format, follow the CIF links at
#  http://www.iucr.org
##########################################################################

data_CrSBr
_symmetry_space_group_name_H-M          'P 1'
_cell_length_a                          3.55335027
_cell_length_b                          4.74493462
_cell_length_c                          8.7604969
_cell_angle_alpha                       90.0
_cell_angle_beta                        90.0
_cell_angle_gamma                       90.0
_chemical_name_systematic               'Generated by pymatgen'
_symmetry_Int_Tables_number             1
_chemical_formula_structural            CrSBr
_chemical_formula_sum                   'Cr2 S2 Br2'
_cell_volume                            147.705610827
_cell_formula_units_Z                   2
loop_
  _symmetry_equiv_pos_site_id
  _symmetry_equiv_pos_as_xyz
   1  'x, y, z'
 
loop_
  _atom_site_type_symbol
  _atom_site_label
  _atom_site_symmetry_multiplicity
  _atom_site_fract_x
  _atom_site_fract_y
  _atom_site_fract_z
  _atom_site_attached_hydrogens
  _atom_site_B_iso_or_equiv
  _atom_site_occupancy
   S  S1  1  0.750000  0.750000  0.935321  0  .  1
   S  S2  1  0.250000  0.250000  0.064679  0  .  1
   Cr  Cr3  1  0.750000  0.250000  0.882382  0  .  1
   Cr  Cr4  1  0.250000  0.750000  0.117618  0  .  1
   Br  Br5  1  0.250000  0.250000  0.677322  0  .  1
   Br  Br6  1  0.750000  0.750000  0.322678  0  .  1
 
