#\#CIF1.1
##########################################################################
#               Crystallographic Information Format file 
#               Produced by PyCifRW module
# 
#  This is a CIF file.  CIF has been adopted by the International
#  Union of Crystallography as the standard for data archiving and 
#  transmission.
#
#  For information on this file format, follow the CIF links at
#  http://www.iucr.org
##########################################################################

data_CrTe
_symmetry_space_group_name_H-M          'P 1'
_cell_length_a                          4.13635746
_cell_length_b                          6.29103733
_cell_length_c                          7.16396316
_cell_angle_alpha                       90.0
_cell_angle_beta                        90.0
_cell_angle_gamma                       90.0
_chemical_name_systematic               'Generated by pymatgen'
_symmetry_Int_Tables_number             1
_chemical_formula_structural            CrTe
_chemical_formula_sum                   'Cr4 Te4'
_cell_volume                            186.420500275
_cell_formula_units_Z                   4
loop_
  _symmetry_equiv_pos_site_id
  _symmetry_equiv_pos_as_xyz
   1  'x, y, z'
 
loop_
  _atom_site_type_symbol
  _atom_site_label
  _atom_site_symmetry_multiplicity
  _atom_site_fract_x
  _atom_site_fract_y
  _atom_site_fract_z
  _atom_site_attached_hydrogens
  _atom_site_B_iso_or_equiv
  _atom_site_occupancy
   Cr  Cr1  1  0.750000  0.999272  0.751395  0  .  1
   Cr  Cr2  1  0.250000  0.000728  0.248605  0  .  1
   Cr  Cr3  1  0.750000  0.499272  0.748605  0  .  1
   Cr  Cr4  1  0.250000  0.500728  0.251395  0  .  1
   Te  Te5  1  0.750000  0.751092  0.416681  0  .  1
   Te  Te6  1  0.250000  0.248909  0.583319  0  .  1
   Te  Te7  1  0.750000  0.251092  0.083319  0  .  1
   Te  Te8  1  0.250000  0.748908  0.916681  0  .  1
 
