#\#CIF1.1
##########################################################################
#               Crystallographic Information Format file 
#               Produced by PyCifRW module
# 
#  This is a CIF file.  CIF has been adopted by the International
#  Union of Crystallography as the standard for data archiving and 
#  transmission.
#
#  For information on this file format, follow the CIF links at
#  http://www.iucr.org
##########################################################################

data_CuAgS
_symmetry_space_group_name_H-M          'P 1'
_cell_length_a                          4.0193848
_cell_length_b                          6.62032943
_cell_length_c                          8.29049718
_cell_angle_alpha                       90.0
_cell_angle_beta                        90.0
_cell_angle_gamma                       90.0
_chemical_name_systematic               'Generated by pymatgen'
_symmetry_Int_Tables_number             1
_chemical_formula_structural            CuAgS
_chemical_formula_sum                   'Cu4 Ag4 S4'
_cell_volume                            220.607240572
_cell_formula_units_Z                   4
loop_
  _symmetry_equiv_pos_site_id
  _symmetry_equiv_pos_as_xyz
   1  'x, y, z'
 
loop_
  _atom_site_type_symbol
  _atom_site_label
  _atom_site_symmetry_multiplicity
  _atom_site_fract_x
  _atom_site_fract_y
  _atom_site_fract_z
  _atom_site_attached_hydrogens
  _atom_site_B_iso_or_equiv
  _atom_site_occupancy
   S  S1  1  0.500000  0.304847  0.254251  0  .  1
   S  S2  1  0.500000  0.695153  0.754251  0  .  1
   S  S3  1  0.000000  0.804826  0.212878  0  .  1
   S  S4  1  0.000000  0.195174  0.712878  0  .  1
   Cu  Cu5  1  0.000000  0.547224  0.722286  0  .  1
   Cu  Cu6  1  0.000000  0.452776  0.222286  0  .  1
   Cu  Cu7  1  0.500000  0.047038  0.745056  0  .  1
   Cu  Cu8  1  0.500000  0.952962  0.245056  0  .  1
   Ag  Ag9  1  0.500000  0.572699  0.469227  0  .  1
   Ag  Ag10  1  0.500000  0.427301  0.969227  0  .  1
   Ag  Ag11  1  0.000000  0.072700  0.997901  0  .  1
   Ag  Ag12  1  0.000000  0.927300  0.497901  0  .  1
 
