#\#CIF1.1
##########################################################################
#               Crystallographic Information Format file 
#               Produced by PyCifRW module
# 
#  This is a CIF file.  CIF has been adopted by the International
#  Union of Crystallography as the standard for data archiving and 
#  transmission.
#
#  For information on this file format, follow the CIF links at
#  http://www.iucr.org
##########################################################################

data_CuAg3S2
_symmetry_space_group_name_H-M          'P 1'
_cell_length_a                          8.58476048951
_cell_length_b                          8.58476048714
_cell_length_c                          8.58476048474
_cell_angle_alpha                       92.1686861839
_cell_angle_beta                        118.75590749
_cell_angle_gamma                       118.755907497
_chemical_name_systematic               'Generated by pymatgen'
_symmetry_Int_Tables_number             1
_chemical_formula_structural            CuAg3S2
_chemical_formula_sum                   'Cu4 Ag12 S8'
_cell_volume                            455.432405009
_cell_formula_units_Z                   4
loop_
  _symmetry_equiv_pos_site_id
  _symmetry_equiv_pos_as_xyz
   1  'x, y, z'
 
loop_
  _atom_site_type_symbol
  _atom_site_label
  _atom_site_symmetry_multiplicity
  _atom_site_fract_x
  _atom_site_fract_y
  _atom_site_fract_z
  _atom_site_attached_hydrogens
  _atom_site_B_iso_or_equiv
  _atom_site_occupancy
   S  S1  1  0.001268  0.787205  0.288472  0  .  1
   S  S2  1  0.498732  0.787205  0.785937  0  .  1
   S  S3  1  0.498732  0.711528  0.212795  0  .  1
   S  S4  1  0.998732  0.785937  0.787205  0  .  1
   S  S5  1  0.501268  0.288472  0.787205  0  .  1
   S  S6  1  0.001268  0.214063  0.212795  0  .  1
   S  S7  1  0.501268  0.212795  0.214063  0  .  1
   S  S8  1  0.998732  0.212795  0.711528  0  .  1
   Cu  Cu9  1  0.250000  0.471811  0.221811  0  .  1
   Cu  Cu10  1  0.750000  0.221811  0.471811  0  .  1
   Cu  Cu11  1  0.750000  0.528189  0.778189  0  .  1
   Cu  Cu12  1  0.250000  0.778189  0.528189  0  .  1
   Ag  Ag13  1  0.121150  0.560575  0.810575  0  .  1
   Ag  Ag14  1  0.250000  0.810575  0.189425  0  .  1
   Ag  Ag15  1  0.250000  0.439425  0.560575  0  .  1
   Ag  Ag16  1  0.378850  0.189425  0.439425  0  .  1
   Ag  Ag17  1  0.878850  0.439425  0.189425  0  .  1
   Ag  Ag18  1  0.750000  0.189425  0.810575  0  .  1
   Ag  Ag19  1  0.750000  0.560575  0.439425  0  .  1
   Ag  Ag20  1  0.621150  0.810575  0.560575  0  .  1
   Ag  Ag21  1  0.500000  0.500000  0.000000  0  .  1
   Ag  Ag22  1  0.500000  0.000000  0.000000  0  .  1
   Ag  Ag23  1  0.000000  0.000000  0.500000  0  .  1
   Ag  Ag24  1  0.000000  0.000000  0.000000  0  .  1
 
