#\#CIF1.1
##########################################################################
#               Crystallographic Information Format file 
#               Produced by PyCifRW module
# 
#  This is a CIF file.  CIF has been adopted by the International
#  Union of Crystallography as the standard for data archiving and 
#  transmission.
#
#  For information on this file format, follow the CIF links at
#  http://www.iucr.org
##########################################################################

data_CuAgS
_symmetry_space_group_name_H-M          'P 1'
_cell_length_a                          3.93823684731
_cell_length_b                          3.93823685092
_cell_length_c                          8.45477093
_cell_angle_alpha                       90.0
_cell_angle_beta                        90.0
_cell_angle_gamma                       119.51807823
_chemical_name_systematic               'Generated by pymatgen'
_symmetry_Int_Tables_number             1
_chemical_formula_structural            CuAgS
_chemical_formula_sum                   'Cu2 Ag2 S2'
_cell_volume                            114.11026857
_cell_formula_units_Z                   2
loop_
  _symmetry_equiv_pos_site_id
  _symmetry_equiv_pos_as_xyz
   1  'x, y, z'
 
loop_
  _atom_site_type_symbol
  _atom_site_label
  _atom_site_symmetry_multiplicity
  _atom_site_fract_x
  _atom_site_fract_y
  _atom_site_fract_z
  _atom_site_attached_hydrogens
  _atom_site_B_iso_or_equiv
  _atom_site_occupancy
   S  S1  1  0.183615  0.816385  0.250939  0  .  1
   S  S2  1  0.816385  0.183615  0.750939  0  .  1
   Cu  Cu3  1  0.477704  0.522296  0.750985  0  .  1
   Cu  Cu4  1  0.522296  0.477704  0.250985  0  .  1
   Ag  Ag5  1  0.999753  0.000247  0.001076  0  .  1
   Ag  Ag6  1  0.000247  0.999753  0.501076  0  .  1
 
