#\#CIF1.1
##########################################################################
#               Crystallographic Information Format file 
#               Produced by PyCifRW module
# 
#  This is a CIF file.  CIF has been adopted by the International
#  Union of Crystallography as the standard for data archiving and 
#  transmission.
#
#  For information on this file format, follow the CIF links at
#  http://www.iucr.org
##########################################################################

data_DySI
_symmetry_space_group_name_H-M          'P 1'
_cell_length_a                          4.19540944
_cell_length_b                          5.34844485
_cell_length_c                          10.6668252
_cell_angle_alpha                       90.0
_cell_angle_beta                        90.0
_cell_angle_gamma                       90.0
_chemical_name_systematic               'Generated by pymatgen'
_symmetry_Int_Tables_number             1
_chemical_formula_structural            DySI
_chemical_formula_sum                   'Dy2 S2 I2'
_cell_volume                            239.351994788
_cell_formula_units_Z                   2
loop_
  _symmetry_equiv_pos_site_id
  _symmetry_equiv_pos_as_xyz
   1  'x, y, z'
 
loop_
  _atom_site_type_symbol
  _atom_site_label
  _atom_site_symmetry_multiplicity
  _atom_site_fract_x
  _atom_site_fract_y
  _atom_site_fract_z
  _atom_site_attached_hydrogens
  _atom_site_B_iso_or_equiv
  _atom_site_occupancy
   S  S1  1  0.750000  0.250000  0.941856  0  .  1
   S  S2  1  0.250000  0.750000  0.058144  0  .  1
   I  I3  1  0.250000  0.750000  0.684130  0  .  1
   I  I4  1  0.750000  0.250000  0.315870  0  .  1
   Dy  Dy5  1  0.250000  0.250000  0.107294  0  .  1
   Dy  Dy6  1  0.750000  0.750000  0.892706  0  .  1
 
