#\#CIF1.1
##########################################################################
#               Crystallographic Information Format file 
#               Produced by PyCifRW module
# 
#  This is a CIF file.  CIF has been adopted by the International
#  Union of Crystallography as the standard for data archiving and 
#  transmission.
#
#  For information on this file format, follow the CIF links at
#  http://www.iucr.org
##########################################################################

data_Er(CoSi)2
_symmetry_space_group_name_H-M          'P 1'
_cell_length_a                          3.8628322858
_cell_length_b                          3.86283228517
_cell_length_c                          5.5701793205
_cell_angle_alpha                       110.288181441
_cell_angle_beta                        110.288181501
_cell_angle_gamma                       89.9999999567
_chemical_name_systematic               'Generated by pymatgen'
_symmetry_Int_Tables_number             1
_chemical_formula_structural            Er(CoSi)2
_chemical_formula_sum                   'Er1 Co2 Si2'
_cell_volume                            72.4362778226
_cell_formula_units_Z                   1
loop_
  _symmetry_equiv_pos_site_id
  _symmetry_equiv_pos_as_xyz
   1  'x, y, z'
 
loop_
  _atom_site_type_symbol
  _atom_site_label
  _atom_site_symmetry_multiplicity
  _atom_site_fract_x
  _atom_site_fract_y
  _atom_site_fract_z
  _atom_site_attached_hydrogens
  _atom_site_B_iso_or_equiv
  _atom_site_occupancy
   Si  Si1  1  0.627321  0.627321  0.254643  0  .  1
   Si  Si2  1  0.372679  0.372679  0.745357  0  .  1
   Co  Co3  1  0.250000  0.750000  0.500000  0  .  1
   Co  Co4  1  0.750000  0.250000  0.500000  0  .  1
   Er  Er5  1  0.000000  0.000000  0.000000  0  .  1
 
