#\#CIF1.1
##########################################################################
#               Crystallographic Information Format file 
#               Produced by PyCifRW module
# 
#  This is a CIF file.  CIF has been adopted by the International
#  Union of Crystallography as the standard for data archiving and 
#  transmission.
#
#  For information on this file format, follow the CIF links at
#  http://www.iucr.org
##########################################################################

data_Er(CoB)2
_symmetry_space_group_name_H-M          'P 1'
_cell_length_a                          3.53904765489
_cell_length_b                          3.53904749447
_cell_length_c                          5.24589365393
_cell_angle_alpha                       109.713434568
_cell_angle_beta                        109.713433606
_cell_angle_gamma                       89.999998999
_chemical_name_systematic               'Generated by pymatgen'
_symmetry_Int_Tables_number             1
_chemical_formula_structural            Er(CoB)2
_chemical_formula_sum                   'Er1 Co2 B2'
_cell_volume                            57.7462109285
_cell_formula_units_Z                   1
loop_
  _symmetry_equiv_pos_site_id
  _symmetry_equiv_pos_as_xyz
   1  'x, y, z'
 
loop_
  _atom_site_type_symbol
  _atom_site_label
  _atom_site_symmetry_multiplicity
  _atom_site_fract_x
  _atom_site_fract_y
  _atom_site_fract_z
  _atom_site_attached_hydrogens
  _atom_site_B_iso_or_equiv
  _atom_site_occupancy
   Er  Er1  1  0.000000  0.000000  0.000000  0  .  1
   Co  Co2  1  0.250000  0.750000  0.500000  0  .  1
   Co  Co3  1  0.750000  0.250000  0.500000  0  .  1
   B  B4  1  0.353284  0.353284  0.706567  0  .  1
   B  B5  1  0.646716  0.646716  0.293433  0  .  1
 
