#\#CIF1.1
##########################################################################
#               Crystallographic Information Format file 
#               Produced by PyCifRW module
# 
#  This is a CIF file.  CIF has been adopted by the International
#  Union of Crystallography as the standard for data archiving and 
#  transmission.
#
#  For information on this file format, follow the CIF links at
#  http://www.iucr.org
##########################################################################

data_Eu(AsRh)2
_symmetry_space_group_name_H-M          'P 1'
_cell_length_a                          4.0905509785
_cell_length_b                          4.09712411666
_cell_length_c                          6.44634637922
_cell_angle_alpha                       108.959756867
_cell_angle_beta                        108.339469398
_cell_angle_gamma                       90.0031221105
_chemical_name_systematic               'Generated by pymatgen'
_symmetry_Int_Tables_number             1
_chemical_formula_structural            Eu(AsRh)2
_chemical_formula_sum                   'Eu1 As2 Rh2'
_cell_volume                            96.3549180933
_cell_formula_units_Z                   1
loop_
  _symmetry_equiv_pos_site_id
  _symmetry_equiv_pos_as_xyz
   1  'x, y, z'
 
loop_
  _atom_site_type_symbol
  _atom_site_label
  _atom_site_symmetry_multiplicity
  _atom_site_fract_x
  _atom_site_fract_y
  _atom_site_fract_z
  _atom_site_attached_hydrogens
  _atom_site_B_iso_or_equiv
  _atom_site_occupancy
   Eu  Eu1  1  0.001942  0.997196  0.000904  0  .  1
   As  As2  1  0.631027  0.626858  0.257812  0  .  1
   As  As3  1  0.370181  0.378187  0.744243  0  .  1
   Rh  Rh4  1  0.251261  0.754246  0.501678  0  .  1
   Rh  Rh5  1  0.749603  0.252220  0.500305  0  .  1
 
