#\#CIF1.1
##########################################################################
#               Crystallographic Information Format file 
#               Produced by PyCifRW module
# 
#  This is a CIF file.  CIF has been adopted by the International
#  Union of Crystallography as the standard for data archiving and 
#  transmission.
#
#  For information on this file format, follow the CIF links at
#  http://www.iucr.org
##########################################################################

data_Eu(CoAs)2
_symmetry_space_group_name_H-M          'P 1'
_cell_length_a                          3.95599880055
_cell_length_b                          3.95581171408
_cell_length_c                          6.23587662492
_cell_angle_alpha                       108.457099922
_cell_angle_beta                        108.485379343
_cell_angle_gamma                       90.0399290471
_chemical_name_systematic               'Generated by pymatgen'
_symmetry_Int_Tables_number             1
_chemical_formula_structural            Eu(CoAs)2
_chemical_formula_sum                   'Eu1 Co2 As2'
_cell_volume                            87.2347488667
_cell_formula_units_Z                   1
loop_
  _symmetry_equiv_pos_site_id
  _symmetry_equiv_pos_as_xyz
   1  'x, y, z'
 
loop_
  _atom_site_type_symbol
  _atom_site_label
  _atom_site_symmetry_multiplicity
  _atom_site_fract_x
  _atom_site_fract_y
  _atom_site_fract_z
  _atom_site_attached_hydrogens
  _atom_site_B_iso_or_equiv
  _atom_site_occupancy
   Eu  Eu1  1  0.000000  0.000000  0.000000  0  .  1
   Co  Co2  1  0.249974  0.749895  0.499993  0  .  1
   Co  Co3  1  0.750026  0.250105  0.500007  0  .  1
   As  As4  1  0.360486  0.360151  0.720933  0  .  1
   As  As5  1  0.639514  0.639849  0.279067  0  .  1
 
