#\#CIF1.1
##########################################################################
#               Crystallographic Information Format file 
#               Produced by PyCifRW module
# 
#  This is a CIF file.  CIF has been adopted by the International
#  Union of Crystallography as the standard for data archiving and 
#  transmission.
#
#  For information on this file format, follow the CIF links at
#  http://www.iucr.org
##########################################################################

data_Eu(FeAs)2
_symmetry_space_group_name_H-M          'P 1'
_cell_length_a                          3.98497355181
_cell_length_b                          3.98497354431
_cell_length_c                          6.08280367918
_cell_angle_alpha                       109.120780148
_cell_angle_beta                        109.120780076
_cell_angle_gamma                       90.0000000232
_chemical_name_systematic               'Generated by pymatgen'
_symmetry_Int_Tables_number             1
_chemical_formula_structural            Eu(FeAs)2
_chemical_formula_sum                   'Eu1 Fe2 As2'
_cell_volume                            85.6056399418
_cell_formula_units_Z                   1
loop_
  _symmetry_equiv_pos_site_id
  _symmetry_equiv_pos_as_xyz
   1  'x, y, z'
 
loop_
  _atom_site_type_symbol
  _atom_site_label
  _atom_site_symmetry_multiplicity
  _atom_site_fract_x
  _atom_site_fract_y
  _atom_site_fract_z
  _atom_site_attached_hydrogens
  _atom_site_B_iso_or_equiv
  _atom_site_occupancy
   Fe  Fe1  1  0.750000  0.250000  0.500000  0  .  1
   Fe  Fe2  1  0.250000  0.750000  0.500000  0  .  1
   As  As3  1  0.640846  0.640846  0.281692  0  .  1
   As  As4  1  0.359154  0.359154  0.718308  0  .  1
   Eu  Eu5  1  0.000000  0.000000  0.000000  0  .  1
 
