#\#CIF1.1
##########################################################################
#               Crystallographic Information Format file 
#               Produced by PyCifRW module
# 
#  This is a CIF file.  CIF has been adopted by the International
#  Union of Crystallography as the standard for data archiving and 
#  transmission.
#
#  For information on this file format, follow the CIF links at
#  http://www.iucr.org
##########################################################################

data_Eu(NiSb)2
_symmetry_space_group_name_H-M          'P 1'
_cell_length_a                          4.39473601632
_cell_length_b                          4.39473571426
_cell_length_c                          6.22142264241
_cell_angle_alpha                       110.682785025
_cell_angle_beta                        110.682783447
_cell_angle_gamma                       90.0000050059
_chemical_name_systematic               'Generated by pymatgen'
_symmetry_Int_Tables_number             1
_chemical_formula_structural            Eu(NiSb)2
_chemical_formula_sum                   'Eu1 Ni2 Sb2'
_cell_volume                            104.095754654
_cell_formula_units_Z                   1
loop_
  _symmetry_equiv_pos_site_id
  _symmetry_equiv_pos_as_xyz
   1  'x, y, z'
 
loop_
  _atom_site_type_symbol
  _atom_site_label
  _atom_site_symmetry_multiplicity
  _atom_site_fract_x
  _atom_site_fract_y
  _atom_site_fract_z
  _atom_site_attached_hydrogens
  _atom_site_B_iso_or_equiv
  _atom_site_occupancy
   Eu  Eu1  1  0.000000  0.000000  0.000000  0  .  1
   Ni  Ni2  1  0.750000  0.250000  0.500000  0  .  1
   Ni  Ni3  1  0.250000  0.750000  0.500000  0  .  1
   Sb  Sb4  1  0.362971  0.362971  0.725942  0  .  1
   Sb  Sb5  1  0.637029  0.637029  0.274058  0  .  1
 
