#\#CIF1.1
##########################################################################
#               Crystallographic Information Format file 
#               Produced by PyCifRW module
# 
#  This is a CIF file.  CIF has been adopted by the International
#  Union of Crystallography as the standard for data archiving and 
#  transmission.
#
#  For information on this file format, follow the CIF links at
#  http://www.iucr.org
##########################################################################

data_Eu(PRh)2
_symmetry_space_group_name_H-M          'P 1'
_cell_length_a                          4.04807154889
_cell_length_b                          4.0480715433
_cell_length_c                          5.7499301982
_cell_angle_alpha                       110.610335338
_cell_angle_beta                        110.610335318
_cell_angle_gamma                       90.0000000411
_chemical_name_systematic               'Generated by pymatgen'
_symmetry_Int_Tables_number             1
_chemical_formula_structural            Eu(PRh)2
_chemical_formula_sum                   'Eu1 P2 Rh2'
_cell_volume                            81.7182431512
_cell_formula_units_Z                   1
loop_
  _symmetry_equiv_pos_site_id
  _symmetry_equiv_pos_as_xyz
   1  'x, y, z'
 
loop_
  _atom_site_type_symbol
  _atom_site_label
  _atom_site_symmetry_multiplicity
  _atom_site_fract_x
  _atom_site_fract_y
  _atom_site_fract_z
  _atom_site_attached_hydrogens
  _atom_site_B_iso_or_equiv
  _atom_site_occupancy
   P  P1  1  0.615435  0.615435  0.230870  0  .  1
   P  P2  1  0.384565  0.384565  0.769130  0  .  1
   Rh  Rh3  1  0.250000  0.750000  0.500000  0  .  1
   Rh  Rh4  1  0.750000  0.250000  0.500000  0  .  1
   Eu  Eu5  1  0.000000  0.000000  0.000000  0  .  1
 
