#\#CIF1.1
##########################################################################
#               Crystallographic Information Format file 
#               Produced by PyCifRW module
# 
#  This is a CIF file.  CIF has been adopted by the International
#  Union of Crystallography as the standard for data archiving and 
#  transmission.
#
#  For information on this file format, follow the CIF links at
#  http://www.iucr.org
##########################################################################

data_Eu(SiPd)2
_symmetry_space_group_name_H-M          'P 1'
_cell_length_a                          4.25982888877
_cell_length_b                          4.2598288954
_cell_length_c                          5.81935195655
_cell_angle_alpha                       111.469472063
_cell_angle_beta                        111.469472037
_cell_angle_gamma                       89.9999999161
_chemical_name_systematic               'Generated by pymatgen'
_symmetry_Int_Tables_number             1
_chemical_formula_structural            Eu(SiPd)2
_chemical_formula_sum                   'Eu1 Si2 Pd2'
_cell_volume                            90.3520930288
_cell_formula_units_Z                   1
loop_
  _symmetry_equiv_pos_site_id
  _symmetry_equiv_pos_as_xyz
   1  'x, y, z'
 
loop_
  _atom_site_type_symbol
  _atom_site_label
  _atom_site_symmetry_multiplicity
  _atom_site_fract_x
  _atom_site_fract_y
  _atom_site_fract_z
  _atom_site_attached_hydrogens
  _atom_site_B_iso_or_equiv
  _atom_site_occupancy
   Si  Si1  1  0.621490  0.621490  0.242980  0  .  1
   Si  Si2  1  0.378510  0.378510  0.757020  0  .  1
   Pd  Pd3  1  0.750000  0.250000  0.500000  0  .  1
   Pd  Pd4  1  0.250000  0.750000  0.500000  0  .  1
   Eu  Eu5  1  0.000000  0.000000  0.000000  0  .  1
 
