#\#CIF1.1
##########################################################################
#               Crystallographic Information Format file 
#               Produced by PyCifRW module
# 
#  This is a CIF file.  CIF has been adopted by the International
#  Union of Crystallography as the standard for data archiving and 
#  transmission.
#
#  For information on this file format, follow the CIF links at
#  http://www.iucr.org
##########################################################################

data_Fe(RhS2)2
_symmetry_space_group_name_H-M          'P 1'
_cell_length_a                          7.0099890856
_cell_length_b                          7.00998908279
_cell_length_c                          7.00998909
_cell_angle_alpha                       60.0000000132
_cell_angle_beta                        60.0000000264
_cell_angle_gamma                       60.0000000316
_chemical_name_systematic               'Generated by pymatgen'
_symmetry_Int_Tables_number             1
_chemical_formula_structural            Fe(RhS2)2
_chemical_formula_sum                   'Fe2 Rh4 S8'
_cell_volume                            243.577420997
_cell_formula_units_Z                   2
loop_
  _symmetry_equiv_pos_site_id
  _symmetry_equiv_pos_as_xyz
   1  'x, y, z'
 
loop_
  _atom_site_type_symbol
  _atom_site_label
  _atom_site_symmetry_multiplicity
  _atom_site_fract_x
  _atom_site_fract_y
  _atom_site_fract_z
  _atom_site_attached_hydrogens
  _atom_site_B_iso_or_equiv
  _atom_site_occupancy
   S  S1  1  0.741010  0.741010  0.741010  0  .  1
   S  S2  1  0.258990  0.258990  0.723031  0  .  1
   S  S3  1  0.258990  0.723031  0.258990  0  .  1
   S  S4  1  0.723031  0.258990  0.258990  0  .  1
   S  S5  1  0.741010  0.276969  0.741010  0  .  1
   S  S6  1  0.276969  0.741010  0.741010  0  .  1
   S  S7  1  0.258990  0.258990  0.258990  0  .  1
   S  S8  1  0.741010  0.741010  0.276969  0  .  1
   Fe  Fe9  1  0.875000  0.875000  0.875000  0  .  1
   Fe  Fe10  1  0.125000  0.125000  0.125000  0  .  1
   Rh  Rh11  1  0.500000  0.500000  0.000000  0  .  1
   Rh  Rh12  1  0.500000  0.500000  0.500000  0  .  1
   Rh  Rh13  1  0.000000  0.500000  0.500000  0  .  1
   Rh  Rh14  1  0.500000  0.000000  0.500000  0  .  1
 
