#\#CIF1.1
##########################################################################
#               Crystallographic Information Format file 
#               Produced by PyCifRW module
# 
#  This is a CIF file.  CIF has been adopted by the International
#  Union of Crystallography as the standard for data archiving and 
#  transmission.
#
#  For information on this file format, follow the CIF links at
#  http://www.iucr.org
##########################################################################

data_Fe2AgS3
_symmetry_space_group_name_H-M          'P 1'
_cell_length_a                          6.43357273
_cell_length_b                          6.30803450756
_cell_length_c                          12.83969937
_cell_angle_alpha                       90.0
_cell_angle_beta                        90.0
_cell_angle_gamma                       120.660543387
_chemical_name_systematic               'Generated by pymatgen'
_symmetry_Int_Tables_number             1
_chemical_formula_structural            Fe2AgS3
_chemical_formula_sum                   'Fe8 Ag4 S12'
_cell_volume                            448.231539996
_cell_formula_units_Z                   4
loop_
  _symmetry_equiv_pos_site_id
  _symmetry_equiv_pos_as_xyz
   1  'x, y, z'
 
loop_
  _atom_site_type_symbol
  _atom_site_label
  _atom_site_symmetry_multiplicity
  _atom_site_fract_x
  _atom_site_fract_y
  _atom_site_fract_z
  _atom_site_attached_hydrogens
  _atom_site_B_iso_or_equiv
  _atom_site_occupancy
   Ag  Ag1  1  0.149358  0.000000  0.295013  0  .  1
   Ag  Ag2  1  0.649358  0.000000  0.204987  0  .  1
   Ag  Ag3  1  0.350642  0.000000  0.795013  0  .  1
   Ag  Ag4  1  0.850642  0.000000  0.704987  0  .  1
   Fe  Fe5  1  0.497076  0.663315  0.441059  0  .  1
   Fe  Fe6  1  0.333762  0.336685  0.058941  0  .  1
   Fe  Fe7  1  0.002924  0.336685  0.941059  0  .  1
   Fe  Fe8  1  0.166238  0.663315  0.558941  0  .  1
   Fe  Fe9  1  0.502924  0.336685  0.558941  0  .  1
   Fe  Fe10  1  0.666238  0.663315  0.941059  0  .  1
   Fe  Fe11  1  0.997076  0.663315  0.058941  0  .  1
   Fe  Fe12  1  0.833762  0.336685  0.441059  0  .  1
   S  S13  1  0.298802  0.000000  0.114703  0  .  1
   S  S14  1  0.798802  0.000000  0.385297  0  .  1
   S  S15  1  0.201198  0.000000  0.614703  0  .  1
   S  S16  1  0.701198  0.000000  0.885297  0  .  1
   S  S17  1  0.523788  0.355525  0.392160  0  .  1
   S  S18  1  0.668263  0.644475  0.107840  0  .  1
   S  S19  1  0.976212  0.644475  0.892160  0  .  1
   S  S20  1  0.831737  0.355525  0.607840  0  .  1
   S  S21  1  0.476212  0.644475  0.607840  0  .  1
   S  S22  1  0.331737  0.355525  0.892160  0  .  1
   S  S23  1  0.023788  0.355525  0.107840  0  .  1
   S  S24  1  0.168263  0.644475  0.392160  0  .  1
 
