#\#CIF1.1
##########################################################################
#               Crystallographic Information Format file 
#               Produced by PyCifRW module
# 
#  This is a CIF file.  CIF has been adopted by the International
#  Union of Crystallography as the standard for data archiving and 
#  transmission.
#
#  For information on this file format, follow the CIF links at
#  http://www.iucr.org
##########################################################################

data_Fe3S4
_symmetry_space_group_name_H-M          'P 1'
_cell_length_a                          3.29805969806
_cell_length_b                          5.48643610701
_cell_length_c                          11.6096511848
_cell_angle_alpha                       95.5424906964
_cell_angle_beta                        81.8341187802
_cell_angle_gamma                       89.9999884865
_chemical_name_systematic               'Generated by pymatgen'
_symmetry_Int_Tables_number             1
_chemical_formula_structural            Fe3S4
_chemical_formula_sum                   'Fe6 S8'
_cell_volume                            206.94977386
_cell_formula_units_Z                   2
loop_
  _symmetry_equiv_pos_site_id
  _symmetry_equiv_pos_as_xyz
   1  'x, y, z'
 
loop_
  _atom_site_type_symbol
  _atom_site_label
  _atom_site_symmetry_multiplicity
  _atom_site_fract_x
  _atom_site_fract_y
  _atom_site_fract_z
  _atom_site_attached_hydrogens
  _atom_site_B_iso_or_equiv
  _atom_site_occupancy
   Fe  Fe1  1  0.136601  0.324880  0.726799  0  .  1
   Fe  Fe2  1  0.630003  0.737096  0.739994  0  .  1
   Fe  Fe3  1  0.252395  0.202272  0.495210  0  .  1
   Fe  Fe4  1  0.747632  0.797396  0.504736  0  .  1
   Fe  Fe5  1  0.370017  0.263055  0.259967  0  .  1
   Fe  Fe6  1  0.863374  0.675240  0.273252  0  .  1
   S  S7  1  0.072854  0.644789  0.854292  0  .  1
   S  S8  1  0.588472  0.142879  0.823056  0  .  1
   S  S9  1  0.298446  0.566285  0.403109  0  .  1
   S  S10  1  0.814402  0.062356  0.371195  0  .  1
   S  S11  1  0.185604  0.937515  0.628791  0  .  1
   S  S12  1  0.701535  0.433625  0.596931  0  .  1
   S  S13  1  0.927150  0.355424  0.145699  0  .  1
   S  S14  1  0.411516  0.857190  0.176969  0  .  1
 
