#\#CIF1.1
##########################################################################
#               Crystallographic Information Format file 
#               Produced by PyCifRW module
# 
#  This is a CIF file.  CIF has been adopted by the International
#  Union of Crystallography as the standard for data archiving and 
#  transmission.
#
#  For information on this file format, follow the CIF links at
#  http://www.iucr.org
##########################################################################

data_Fe7S8
_symmetry_space_group_name_H-M          'P 1'
_cell_length_a                          6.67786987111
_cell_length_b                          6.53462867484
_cell_length_c                          10.9331481965
_cell_angle_alpha                       78.1631458955
_cell_angle_beta                        72.2180360851
_cell_angle_gamma                       59.2721941936
_chemical_name_systematic               'Generated by pymatgen'
_symmetry_Int_Tables_number             1
_chemical_formula_structural            Fe7S8
_chemical_formula_sum                   'Fe14 S16'
_cell_volume                            389.816700461
_cell_formula_units_Z                   2
loop_
  _symmetry_equiv_pos_site_id
  _symmetry_equiv_pos_as_xyz
   1  'x, y, z'
 
loop_
  _atom_site_type_symbol
  _atom_site_label
  _atom_site_symmetry_multiplicity
  _atom_site_fract_x
  _atom_site_fract_y
  _atom_site_fract_z
  _atom_site_attached_hydrogens
  _atom_site_B_iso_or_equiv
  _atom_site_occupancy
   Fe  Fe1  1  0.896414  0.291320  0.029988  0  .  1
   Fe  Fe2  1  0.717723  0.208680  0.470012  0  .  1
   Fe  Fe3  1  0.103586  0.708680  0.970012  0  .  1
   Fe  Fe4  1  0.282277  0.791320  0.529988  0  .  1
   Fe  Fe5  1  0.119750  0.281745  0.770386  0  .  1
   Fe  Fe6  1  0.671881  0.218255  0.729614  0  .  1
   Fe  Fe7  1  0.880250  0.718255  0.229614  0  .  1
   Fe  Fe8  1  0.328119  0.781745  0.270386  0  .  1
   Fe  Fe9  1  0.290395  0.212098  0.499166  0  .  1
   Fe  Fe10  1  0.501659  0.287902  0.000834  0  .  1
   Fe  Fe11  1  0.709605  0.787902  0.500834  0  .  1
   Fe  Fe12  1  0.498341  0.712098  0.999166  0  .  1
   Fe  Fe13  1  0.697870  0.750000  0.750000  0  .  1
   Fe  Fe14  1  0.302130  0.250000  0.250000  0  .  1
   S  S15  1  0.096063  0.913036  0.117616  0  .  1
   S  S16  1  0.626715  0.586964  0.382384  0  .  1
   S  S17  1  0.903937  0.086964  0.882384  0  .  1
   S  S18  1  0.373285  0.413036  0.617616  0  .  1
   S  S19  1  0.914424  0.587121  0.890044  0  .  1
   S  S20  1  0.891588  0.912879  0.609956  0  .  1
   S  S21  1  0.085576  0.412879  0.109956  0  .  1
   S  S22  1  0.108412  0.087121  0.390044  0  .  1
   S  S23  1  0.448834  0.569195  0.846237  0  .  1
   S  S24  1  0.364267  0.930805  0.653763  0  .  1
   S  S25  1  0.551166  0.430805  0.153763  0  .  1
   S  S26  1  0.635733  0.069195  0.346237  0  .  1
   S  S27  1  0.123611  0.583467  0.370667  0  .  1
   S  S28  1  0.577745  0.916533  0.129333  0  .  1
   S  S29  1  0.876389  0.416533  0.629333  0  .  1
   S  S30  1  0.422255  0.083467  0.870667  0  .  1
 
