#\#CIF1.1
##########################################################################
#               Crystallographic Information Format file 
#               Produced by PyCifRW module
# 
#  This is a CIF file.  CIF has been adopted by the International
#  Union of Crystallography as the standard for data archiving and 
#  transmission.
#
#  For information on this file format, follow the CIF links at
#  http://www.iucr.org
##########################################################################

data_FeCl3
_symmetry_space_group_name_H-M          'P 1'
_cell_length_a                          12.0983719571
_cell_length_b                          3.75502169041
_cell_length_c                          9.38906899049
_cell_angle_alpha                       109.422547732
_cell_angle_beta                        140.523597989
_cell_angle_gamma                       64.5257277212
_chemical_name_systematic               'Generated by pymatgen'
_symmetry_Int_Tables_number             1
_chemical_formula_structural            FeCl3
_chemical_formula_sum                   'Fe2 Cl6'
_cell_volume                            244.81407337
_cell_formula_units_Z                   2
loop_
  _symmetry_equiv_pos_site_id
  _symmetry_equiv_pos_as_xyz
   1  'x, y, z'
 
loop_
  _atom_site_type_symbol
  _atom_site_label
  _atom_site_symmetry_multiplicity
  _atom_site_fract_x
  _atom_site_fract_y
  _atom_site_fract_z
  _atom_site_attached_hydrogens
  _atom_site_B_iso_or_equiv
  _atom_site_occupancy
   Fe  Fe1  1  0.493254  0.783142  0.352300  0  .  1
   Fe  Fe2  1  0.789541  0.164752  0.128936  0  .  1
   Cl  Cl3  1  0.231520  0.741937  0.026633  0  .  1
   Cl  Cl4  1  0.993388  0.172143  0.483597  0  .  1
   Cl  Cl5  1  0.671880  0.125515  0.457371  0  .  1
   Cl  Cl6  1  0.457870  0.069335  0.558088  0  .  1
   Cl  Cl7  1  0.847312  0.501044  0.032533  0  .  1
   Cl  Cl8  1  0.523986  0.470166  -0.012770  0  .  1
 
