#\#CIF1.1
##########################################################################
#               Crystallographic Information Format file 
#               Produced by PyCifRW module
# 
#  This is a CIF file.  CIF has been adopted by the International
#  Union of Crystallography as the standard for data archiving and 
#  transmission.
#
#  For information on this file format, follow the CIF links at
#  http://www.iucr.org
##########################################################################

data_FeS
_symmetry_space_group_name_H-M          'P 1'
_cell_length_a                          5.89723991361
_cell_length_b                          11.420514521
_cell_length_c                          5.89463869696
_cell_angle_alpha                       89.9699193635
_cell_angle_beta                        119.98922211
_cell_angle_gamma                       90.011007579
_chemical_name_systematic               'Generated by pymatgen'
_symmetry_Int_Tables_number             1
_chemical_formula_structural            FeS
_chemical_formula_sum                   'Fe12 S12'
_cell_volume                            343.850281488
_cell_formula_units_Z                   12
loop_
  _symmetry_equiv_pos_site_id
  _symmetry_equiv_pos_as_xyz
   1  'x, y, z'
 
loop_
  _atom_site_type_symbol
  _atom_site_label
  _atom_site_symmetry_multiplicity
  _atom_site_fract_x
  _atom_site_fract_y
  _atom_site_fract_z
  _atom_site_attached_hydrogens
  _atom_site_B_iso_or_equiv
  _atom_site_occupancy
   Fe  Fe1  1  0.678785  0.620986  0.605343  0  .  1
   Fe  Fe2  1  0.605547  0.378996  0.678579  0  .  1
   Fe  Fe3  1  0.394402  0.621239  0.073090  0  .  1
   Fe  Fe4  1  0.926884  0.621212  0.321434  0  .  1
   Fe  Fe5  1  0.605391  0.121038  0.679043  0  .  1
   Fe  Fe6  1  0.322020  0.120763  0.926781  0  .  1
   Fe  Fe7  1  0.926617  0.878828  0.321424  0  .  1
   Fe  Fe8  1  0.394732  0.878934  0.073477  0  .  1
   Fe  Fe9  1  0.320917  0.379327  0.926257  0  .  1
   Fe  Fe10  1  0.073013  0.120993  0.394294  0  .  1
   Fe  Fe11  1  0.678503  0.878976  0.605468  0  .  1
   Fe  Fe12  1  0.073469  0.378931  0.395292  0  .  1
   S  S13  1  0.002219  0.249716  0.662064  0  .  1
   S  S14  1  0.333125  0.974589  0.666718  0  .  1
   S  S15  1  0.666619  0.474115  0.333071  0  .  1
   S  S16  1  0.337784  0.249966  0.340497  0  .  1
   S  S17  1  0.659983  0.250143  0.997235  0  .  1
   S  S18  1  0.340708  0.750067  0.337262  0  .  1
   S  S19  1  0.999773  0.999846  0.000001  0  .  1
   S  S20  1  0.333585  0.525373  0.666765  0  .  1
   S  S21  1  0.666472  0.025906  0.333329  0  .  1
   S  S22  1  0.996662  0.749998  0.659345  0  .  1
   S  S23  1  0.000017  0.500035  0.999720  0  .  1
   S  S24  1  0.662772  0.750022  0.003511  0  .  1
 
