#\#CIF1.1
##########################################################################
#               Crystallographic Information Format file 
#               Produced by PyCifRW module
# 
#  This is a CIF file.  CIF has been adopted by the International
#  Union of Crystallography as the standard for data archiving and 
#  transmission.
#
#  For information on this file format, follow the CIF links at
#  http://www.iucr.org
##########################################################################

data_FeS2
_symmetry_space_group_name_H-M          'P 1'
_cell_length_a                          5.68831877232
_cell_length_b                          6.51549285822
_cell_length_c                          5.76743516969
_cell_angle_alpha                       90.072956988
_cell_angle_beta                        90.012917051
_cell_angle_gamma                       89.9990772473
_chemical_name_systematic               'Generated by pymatgen'
_symmetry_Int_Tables_number             1
_chemical_formula_structural            FeS2
_chemical_formula_sum                   'Fe4 S8'
_cell_volume                            213.753658938
_cell_formula_units_Z                   4
loop_
  _symmetry_equiv_pos_site_id
  _symmetry_equiv_pos_as_xyz
   1  'x, y, z'
 
loop_
  _atom_site_type_symbol
  _atom_site_label
  _atom_site_symmetry_multiplicity
  _atom_site_fract_x
  _atom_site_fract_y
  _atom_site_fract_z
  _atom_site_attached_hydrogens
  _atom_site_B_iso_or_equiv
  _atom_site_occupancy
   Fe  Fe1  1  0.000505  0.395872  0.000824  0  .  1
   Fe  Fe2  1  0.499603  0.395781  0.500757  0  .  1
   Fe  Fe3  1  0.000178  0.604268  0.500422  0  .  1
   Fe  Fe4  1  0.499752  0.604228  0.000445  0  .  1
   S  S5  1  0.361362  0.725765  0.365206  0  .  1
   S  S6  1  0.638903  0.274406  0.865386  0  .  1
   S  S7  1  0.138513  0.725534  0.865141  0  .  1
   S  S8  1  0.861181  0.274202  0.365385  0  .  1
   S  S9  1  0.138234  0.273692  0.635719  0  .  1
   S  S10  1  0.361772  0.273835  0.135720  0  .  1
   S  S11  1  0.638756  0.726298  0.635652  0  .  1
   S  S12  1  0.861242  0.726119  0.135742  0  .  1
 
