#\#CIF1.1
##########################################################################
#               Crystallographic Information Format file 
#               Produced by PyCifRW module
# 
#  This is a CIF file.  CIF has been adopted by the International
#  Union of Crystallography as the standard for data archiving and 
#  transmission.
#
#  For information on this file format, follow the CIF links at
#  http://www.iucr.org
##########################################################################

data_Gd(CrSi)2
_symmetry_space_group_name_H-M          'P 1'
_cell_length_a                          3.85327743905
_cell_length_b                          3.87780907135
_cell_length_c                          6.02575034342
_cell_angle_alpha                       108.475504391
_cell_angle_beta                        108.857851186
_cell_angle_gamma                       90.0181459644
_chemical_name_systematic               'Generated by pymatgen'
_symmetry_Int_Tables_number             1
_chemical_formula_structural            Gd(CrSi)2
_chemical_formula_sum                   'Gd1 Cr2 Si2'
_cell_volume                            80.2826586139
_cell_formula_units_Z                   1
loop_
  _symmetry_equiv_pos_site_id
  _symmetry_equiv_pos_as_xyz
   1  'x, y, z'
 
loop_
  _atom_site_type_symbol
  _atom_site_label
  _atom_site_symmetry_multiplicity
  _atom_site_fract_x
  _atom_site_fract_y
  _atom_site_fract_z
  _atom_site_attached_hydrogens
  _atom_site_B_iso_or_equiv
  _atom_site_occupancy
   Gd  Gd1  1  0.998823  0.005730  0.999532  0  .  1
   Cr  Cr2  1  0.253794  0.760924  0.500341  0  .  1
   Cr  Cr3  1  0.747234  0.250912  0.498180  0  .  1
   Si  Si4  1  0.618047  0.619722  0.231784  0  .  1
   Si  Si5  1  0.382208  0.392150  0.766681  0  .  1
 
