#\#CIF1.1
##########################################################################
#               Crystallographic Information Format file 
#               Produced by PyCifRW module
# 
#  This is a CIF file.  CIF has been adopted by the International
#  Union of Crystallography as the standard for data archiving and 
#  transmission.
#
#  For information on this file format, follow the CIF links at
#  http://www.iucr.org
##########################################################################

data_Gd(CuGe)2
_symmetry_space_group_name_H-M          'P 1'
_cell_length_a                          4.10316856453
_cell_length_b                          4.10924727785
_cell_length_c                          5.93295198457
_cell_angle_alpha                       110.732666042
_cell_angle_beta                        110.230324393
_cell_angle_gamma                       90.0000000278
_chemical_name_systematic               'Generated by pymatgen'
_symmetry_Int_Tables_number             1
_chemical_formula_structural            Gd(CuGe)2
_chemical_formula_sum                   'Gd1 Cu2 Ge2'
_cell_volume                            86.927242638
_cell_formula_units_Z                   1
loop_
  _symmetry_equiv_pos_site_id
  _symmetry_equiv_pos_as_xyz
   1  'x, y, z'
 
loop_
  _atom_site_type_symbol
  _atom_site_label
  _atom_site_symmetry_multiplicity
  _atom_site_fract_x
  _atom_site_fract_y
  _atom_site_fract_z
  _atom_site_attached_hydrogens
  _atom_site_B_iso_or_equiv
  _atom_site_occupancy
   Cu  Cu1  1  0.249790  0.729158  0.499581  0  .  1
   Cu  Cu2  1  0.750210  0.270842  0.500419  0  .  1
   Ge  Ge3  1  0.620527  0.637091  0.241055  0  .  1
   Ge  Ge4  1  0.379473  0.362909  0.758945  0  .  1
   Gd  Gd5  1  0.000000  0.000000  0.000000  0  .  1
 
