#\#CIF1.1
##########################################################################
#               Crystallographic Information Format file 
#               Produced by PyCifRW module
# 
#  This is a CIF file.  CIF has been adopted by the International
#  Union of Crystallography as the standard for data archiving and 
#  transmission.
#
#  For information on this file format, follow the CIF links at
#  http://www.iucr.org
##########################################################################

data_Gd(FeGe)2
_symmetry_space_group_name_H-M          'P 1'
_cell_length_a                          3.97505736854
_cell_length_b                          3.98526876837
_cell_length_c                          6.03221665197
_cell_angle_alpha                       108.847163191
_cell_angle_beta                        109.362787106
_cell_angle_gamma                       89.965432657
_chemical_name_systematic               'Generated by pymatgen'
_symmetry_Int_Tables_number             1
_chemical_formula_structural            Gd(FeGe)2
_chemical_formula_sum                   'Gd1 Fe2 Ge2'
_cell_volume                            84.7123676614
_cell_formula_units_Z                   1
loop_
  _symmetry_equiv_pos_site_id
  _symmetry_equiv_pos_as_xyz
   1  'x, y, z'
 
loop_
  _atom_site_type_symbol
  _atom_site_label
  _atom_site_symmetry_multiplicity
  _atom_site_fract_x
  _atom_site_fract_y
  _atom_site_fract_z
  _atom_site_attached_hydrogens
  _atom_site_B_iso_or_equiv
  _atom_site_occupancy
   Gd  Gd1  1  0.992699  0.002711  0.000742  0  .  1
   Fe  Fe2  1  0.246150  0.760563  0.500681  0  .  1
   Fe  Fe3  1  0.739839  0.243211  0.499827  0  .  1
   Ge  Ge4  1  0.372967  0.388552  0.763443  0  .  1
   Ge  Ge5  1  0.612689  0.615553  0.237033  0  .  1
 
