#\#CIF1.1
##########################################################################
#               Crystallographic Information Format file 
#               Produced by PyCifRW module
# 
#  This is a CIF file.  CIF has been adopted by the International
#  Union of Crystallography as the standard for data archiving and 
#  transmission.
#
#  For information on this file format, follow the CIF links at
#  http://www.iucr.org
##########################################################################

data_Gd(FeSi)2
_symmetry_space_group_name_H-M          'P 1'
_cell_length_a                          3.97658560466
_cell_length_b                          3.97658558166
_cell_length_c                          5.56987027369
_cell_angle_alpha                       110.914412258
_cell_angle_beta                        110.914412122
_cell_angle_gamma                       89.9999948858
_chemical_name_systematic               'Generated by pymatgen'
_symmetry_Int_Tables_number             1
_chemical_formula_structural            Gd(FeSi)2
_chemical_formula_sum                   'Gd1 Fe2 Si2'
_cell_volume                            76.0299781925
_cell_formula_units_Z                   1
loop_
  _symmetry_equiv_pos_site_id
  _symmetry_equiv_pos_as_xyz
   1  'x, y, z'
 
loop_
  _atom_site_type_symbol
  _atom_site_label
  _atom_site_symmetry_multiplicity
  _atom_site_fract_x
  _atom_site_fract_y
  _atom_site_fract_z
  _atom_site_attached_hydrogens
  _atom_site_B_iso_or_equiv
  _atom_site_occupancy
   Gd  Gd1  1  0.000000  0.000000  0.000000  0  .  1
   Fe  Fe2  1  0.750000  0.250000  0.500000  0  .  1
   Fe  Fe3  1  0.250000  0.750000  0.500000  0  .  1
   Si  Si4  1  0.364899  0.364899  0.729799  0  .  1
   Si  Si5  1  0.635101  0.635101  0.270201  0  .  1
 
