#\#CIF1.1
##########################################################################
#               Crystallographic Information Format file 
#               Produced by PyCifRW module
# 
#  This is a CIF file.  CIF has been adopted by the International
#  Union of Crystallography as the standard for data archiving and 
#  transmission.
#
#  For information on this file format, follow the CIF links at
#  http://www.iucr.org
##########################################################################

data_Gd(GePd)2
_symmetry_space_group_name_H-M          'P 1'
_cell_length_a                          4.31808468922
_cell_length_b                          4.31799748938
_cell_length_c                          5.95001160754
_cell_angle_alpha                       111.282833348
_cell_angle_beta                        111.276161116
_cell_angle_gamma                       89.9999999129
_chemical_name_systematic               'Generated by pymatgen'
_symmetry_Int_Tables_number             1
_chemical_formula_structural            Gd(GePd)2
_chemical_formula_sum                   'Gd1 Ge2 Pd2'
_cell_volume                            95.2141961237
_cell_formula_units_Z                   1
loop_
  _symmetry_equiv_pos_site_id
  _symmetry_equiv_pos_as_xyz
   1  'x, y, z'
 
loop_
  _atom_site_type_symbol
  _atom_site_label
  _atom_site_symmetry_multiplicity
  _atom_site_fract_x
  _atom_site_fract_y
  _atom_site_fract_z
  _atom_site_attached_hydrogens
  _atom_site_B_iso_or_equiv
  _atom_site_occupancy
   Ge  Ge1  1  0.621096  0.619827  0.242192  0  .  1
   Ge  Ge2  1  0.378904  0.380173  0.757808  0  .  1
   Pd  Pd3  1  0.750020  0.248895  0.500039  0  .  1
   Pd  Pd4  1  0.249980  0.751105  0.499961  0  .  1
   Gd  Gd5  1  0.000000  0.000000  0.000000  0  .  1
 
