#\#CIF1.1
##########################################################################
#               Crystallographic Information Format file 
#               Produced by PyCifRW module
# 
#  This is a CIF file.  CIF has been adopted by the International
#  Union of Crystallography as the standard for data archiving and 
#  transmission.
#
#  For information on this file format, follow the CIF links at
#  http://www.iucr.org
##########################################################################

data_Gd(MnGe)2
_symmetry_space_group_name_H-M          'P 1'
_cell_length_a                          3.97042682813
_cell_length_b                          3.97042682844
_cell_length_c                          6.1397830418
_cell_angle_alpha                       108.864797681
_cell_angle_beta                        108.864797637
_cell_angle_gamma                       89.999999954
_chemical_name_systematic               'Generated by pymatgen'
_symmetry_Int_Tables_number             1
_chemical_formula_structural            Gd(MnGe)2
_chemical_formula_sum                   'Gd1 Mn2 Ge2'
_cell_volume                            86.0776257885
_cell_formula_units_Z                   1
loop_
  _symmetry_equiv_pos_site_id
  _symmetry_equiv_pos_as_xyz
   1  'x, y, z'
 
loop_
  _atom_site_type_symbol
  _atom_site_label
  _atom_site_symmetry_multiplicity
  _atom_site_fract_x
  _atom_site_fract_y
  _atom_site_fract_z
  _atom_site_attached_hydrogens
  _atom_site_B_iso_or_equiv
  _atom_site_occupancy
   Mn  Mn1  1  0.250000  0.750000  0.500000  0  .  1
   Mn  Mn2  1  0.750000  0.250000  0.500000  0  .  1
   Ge  Ge3  1  0.620502  0.620502  0.241005  0  .  1
   Ge  Ge4  1  0.379498  0.379498  0.758995  0  .  1
   Gd  Gd5  1  0.000000  0.000000  0.000000  0  .  1
 
