#\#CIF1.1
##########################################################################
#               Crystallographic Information Format file 
#               Produced by PyCifRW module
# 
#  This is a CIF file.  CIF has been adopted by the International
#  Union of Crystallography as the standard for data archiving and 
#  transmission.
#
#  For information on this file format, follow the CIF links at
#  http://www.iucr.org
##########################################################################

data_Gd(SiAg)2
_symmetry_space_group_name_H-M          'P 1'
_cell_length_a                          4.19529100819
_cell_length_b                          4.19741922567
_cell_length_c                          6.14388403772
_cell_angle_alpha                       109.974501758
_cell_angle_beta                        109.96341786
_cell_angle_gamma                       89.9999999568
_chemical_name_systematic               'Generated by pymatgen'
_symmetry_Int_Tables_number             1
_chemical_formula_structural            Gd(SiAg)2
_chemical_formula_sum                   'Gd1 Si2 Ag2'
_cell_volume                            94.7352563661
_cell_formula_units_Z                   1
loop_
  _symmetry_equiv_pos_site_id
  _symmetry_equiv_pos_as_xyz
   1  'x, y, z'
 
loop_
  _atom_site_type_symbol
  _atom_site_label
  _atom_site_symmetry_multiplicity
  _atom_site_fract_x
  _atom_site_fract_y
  _atom_site_fract_z
  _atom_site_attached_hydrogens
  _atom_site_B_iso_or_equiv
  _atom_site_occupancy
   Si  Si1  1  0.607157  0.607133  0.214313  0  .  1
   Si  Si2  1  0.392843  0.392867  0.785687  0  .  1
   Ag  Ag3  1  0.249894  0.749926  0.499788  0  .  1
   Ag  Ag4  1  0.750106  0.250074  0.500212  0  .  1
   Gd  Gd5  1  0.000000  0.000000  0.000000  0  .  1
 
