#\#CIF1.1
##########################################################################
#               Crystallographic Information Format file 
#               Produced by PyCifRW module
# 
#  This is a CIF file.  CIF has been adopted by the International
#  Union of Crystallography as the standard for data archiving and 
#  transmission.
#
#  For information on this file format, follow the CIF links at
#  http://www.iucr.org
##########################################################################

data_HfBrN
_symmetry_space_group_name_H-M          'P 1'
_cell_length_a                          10.666736309
_cell_length_b                          10.6667363091
_cell_length_c                          10.6667363022
_cell_angle_alpha                       19.5822032416
_cell_angle_beta                        19.5822032428
_cell_angle_gamma                       19.5822032385
_chemical_name_systematic               'Generated by pymatgen'
_symmetry_Int_Tables_number             1
_chemical_formula_structural            HfBrN
_chemical_formula_sum                   'Hf2 Br2 N2'
_cell_volume                            119.215545302
_cell_formula_units_Z                   2
loop_
  _symmetry_equiv_pos_site_id
  _symmetry_equiv_pos_as_xyz
   1  'x, y, z'
 
loop_
  _atom_site_type_symbol
  _atom_site_label
  _atom_site_symmetry_multiplicity
  _atom_site_fract_x
  _atom_site_fract_y
  _atom_site_fract_z
  _atom_site_attached_hydrogens
  _atom_site_B_iso_or_equiv
  _atom_site_occupancy
   N  N1  1  0.860916  0.860916  0.860916  0  .  1
   N  N2  1  0.139084  0.139084  0.139084  0  .  1
   Br  Br3  1  0.395509  0.395509  0.395509  0  .  1
   Br  Br4  1  0.604491  0.604491  0.604491  0  .  1
   Hf  Hf5  1  0.792224  0.792224  0.792224  0  .  1
   Hf  Hf6  1  0.207776  0.207776  0.207776  0  .  1
 
