#\#CIF1.1
##########################################################################
#               Crystallographic Information Format file 
#               Produced by PyCifRW module
# 
#  This is a CIF file.  CIF has been adopted by the International
#  Union of Crystallography as the standard for data archiving and 
#  transmission.
#
#  For information on this file format, follow the CIF links at
#  http://www.iucr.org
##########################################################################

data_HfIN
_symmetry_space_group_name_H-M          'P 1'
_cell_length_a                          12.2341739248
_cell_length_b                          12.2341737508
_cell_length_c                          12.2341740802
_cell_angle_alpha                       17.4423066618
_cell_angle_beta                        17.4423088703
_cell_angle_gamma                       17.4423089327
_chemical_name_systematic               'Generated by pymatgen'
_symmetry_Int_Tables_number             1
_chemical_formula_structural            HfIN
_chemical_formula_sum                   'Hf2 I2 N2'
_cell_volume                            143.582020737
_cell_formula_units_Z                   2
loop_
  _symmetry_equiv_pos_site_id
  _symmetry_equiv_pos_as_xyz
   1  'x, y, z'
 
loop_
  _atom_site_type_symbol
  _atom_site_label
  _atom_site_symmetry_multiplicity
  _atom_site_fract_x
  _atom_site_fract_y
  _atom_site_fract_z
  _atom_site_attached_hydrogens
  _atom_site_B_iso_or_equiv
  _atom_site_occupancy
   Hf  Hf1  1  0.798382  0.798382  0.798382  0  .  1
   Hf  Hf2  1  0.201618  0.201618  0.201618  0  .  1
   I  I3  1  0.404107  0.404107  0.404107  0  .  1
   I  I4  1  0.595893  0.595893  0.595893  0  .  1
   N  N5  1  0.142556  0.142556  0.142556  0  .  1
   N  N6  1  0.857444  0.857444  0.857444  0  .  1
 
