#\#CIF1.1
##########################################################################
#               Crystallographic Information Format file 
#               Produced by PyCifRW module
# 
#  This is a CIF file.  CIF has been adopted by the International
#  Union of Crystallography as the standard for data archiving and 
#  transmission.
#
#  For information on this file format, follow the CIF links at
#  http://www.iucr.org
##########################################################################

data_Ho(CuGe)2
_symmetry_space_group_name_H-M          'P 1'
_cell_length_a                          4.03563808989
_cell_length_b                          4.035638092
_cell_length_c                          5.91274968032
_cell_angle_alpha                       109.95401006
_cell_angle_beta                        109.954010103
_cell_angle_gamma                       89.9999999769
_chemical_name_systematic               'Generated by pymatgen'
_symmetry_Int_Tables_number             1
_chemical_formula_structural            Ho(CuGe)2
_chemical_formula_sum                   'Ho1 Cu2 Ge2'
_cell_volume                            84.3398711758
_cell_formula_units_Z                   1
loop_
  _symmetry_equiv_pos_site_id
  _symmetry_equiv_pos_as_xyz
   1  'x, y, z'
 
loop_
  _atom_site_type_symbol
  _atom_site_label
  _atom_site_symmetry_multiplicity
  _atom_site_fract_x
  _atom_site_fract_y
  _atom_site_fract_z
  _atom_site_attached_hydrogens
  _atom_site_B_iso_or_equiv
  _atom_site_occupancy
   Cu  Cu1  1  0.250000  0.750000  0.500000  0  .  1
   Cu  Cu2  1  0.750000  0.250000  0.500000  0  .  1
   Ge  Ge3  1  0.618592  0.618592  0.237185  0  .  1
   Ge  Ge4  1  0.381408  0.381408  0.762815  0  .  1
   Ho  Ho5  1  0.000000  0.000000  0.000000  0  .  1
 
