#\#CIF1.1
##########################################################################
#               Crystallographic Information Format file 
#               Produced by PyCifRW module
# 
#  This is a CIF file.  CIF has been adopted by the International
#  Union of Crystallography as the standard for data archiving and 
#  transmission.
#
#  For information on this file format, follow the CIF links at
#  http://www.iucr.org
##########################################################################

data_Ho(FeB)2
_symmetry_space_group_name_H-M          'P 1'
_cell_length_a                          3.60281846223
_cell_length_b                          3.60281849507
_cell_length_c                          5.30990450966
_cell_angle_alpha                       109.831470109
_cell_angle_beta                        109.831470366
_cell_angle_gamma                       89.9999957722
_chemical_name_systematic               'Generated by pymatgen'
_symmetry_Int_Tables_number             1
_chemical_formula_structural            Ho(FeB)2
_chemical_formula_sum                   'Ho1 Fe2 B2'
_cell_volume                            60.4733425529
_cell_formula_units_Z                   1
loop_
  _symmetry_equiv_pos_site_id
  _symmetry_equiv_pos_as_xyz
   1  'x, y, z'
 
loop_
  _atom_site_type_symbol
  _atom_site_label
  _atom_site_symmetry_multiplicity
  _atom_site_fract_x
  _atom_site_fract_y
  _atom_site_fract_z
  _atom_site_attached_hydrogens
  _atom_site_B_iso_or_equiv
  _atom_site_occupancy
   Ho  Ho1  1  0.000000  0.000000  0.000000  0  .  1
   Fe  Fe2  1  0.250000  0.750000  0.500000  0  .  1
   Fe  Fe3  1  0.750000  0.250000  0.500000  0  .  1
   B  B4  1  0.343227  0.343227  0.686453  0  .  1
   B  B5  1  0.656773  0.656773  0.313547  0  .  1
 
