#\#CIF1.1
##########################################################################
#               Crystallographic Information Format file 
#               Produced by PyCifRW module
# 
#  This is a CIF file.  CIF has been adopted by the International
#  Union of Crystallography as the standard for data archiving and 
#  transmission.
#
#  For information on this file format, follow the CIF links at
#  http://www.iucr.org
##########################################################################

data_Ho(MnGe)2
_symmetry_space_group_name_H-M          'P 1'
_cell_length_a                          3.92627571284
_cell_length_b                          3.92627570636
_cell_length_c                          6.0982792741
_cell_angle_alpha                       108.778877644
_cell_angle_beta                        108.778877641
_cell_angle_gamma                       89.9999999825
_chemical_name_systematic               'Generated by pymatgen'
_symmetry_Int_Tables_number             1
_chemical_formula_structural            Ho(MnGe)2
_chemical_formula_sum                   'Ho1 Mn2 Ge2'
_cell_volume                            83.7016633216
_cell_formula_units_Z                   1
loop_
  _symmetry_equiv_pos_site_id
  _symmetry_equiv_pos_as_xyz
   1  'x, y, z'
 
loop_
  _atom_site_type_symbol
  _atom_site_label
  _atom_site_symmetry_multiplicity
  _atom_site_fract_x
  _atom_site_fract_y
  _atom_site_fract_z
  _atom_site_attached_hydrogens
  _atom_site_B_iso_or_equiv
  _atom_site_occupancy
   Mn  Mn1  1  0.250000  0.750000  0.500000  0  .  1
   Mn  Mn2  1  0.750000  0.250000  0.500000  0  .  1
   Ge  Ge3  1  0.618445  0.618445  0.236889  0  .  1
   Ge  Ge4  1  0.381555  0.381555  0.763111  0  .  1
   Ho  Ho5  1  0.000000  0.000000  0.000000  0  .  1
 
