#\#CIF1.1
##########################################################################
#               Crystallographic Information Format file 
#               Produced by PyCifRW module
# 
#  This is a CIF file.  CIF has been adopted by the International
#  Union of Crystallography as the standard for data archiving and 
#  transmission.
#
#  For information on this file format, follow the CIF links at
#  http://www.iucr.org
##########################################################################

data_K(CoO2)2
_symmetry_space_group_name_H-M          'P 1'
_cell_length_a                          5.70645893943
_cell_length_b                          4.93524588909
_cell_length_c                          12.5906730903
_cell_angle_alpha                       90.0395754068
_cell_angle_beta                        89.9987450081
_cell_angle_gamma                       90.0286802706
_chemical_name_systematic               'Generated by pymatgen'
_symmetry_Int_Tables_number             1
_chemical_formula_structural            K(CoO2)2
_chemical_formula_sum                   'K4 Co8 O16'
_cell_volume                            354.588202299
_cell_formula_units_Z                   4
loop_
  _symmetry_equiv_pos_site_id
  _symmetry_equiv_pos_as_xyz
   1  'x, y, z'
 
loop_
  _atom_site_type_symbol
  _atom_site_label
  _atom_site_symmetry_multiplicity
  _atom_site_fract_x
  _atom_site_fract_y
  _atom_site_fract_z
  _atom_site_attached_hydrogens
  _atom_site_B_iso_or_equiv
  _atom_site_occupancy
   K  K1  1  0.999831  0.036738  0.251005  0  .  1
   K  K2  1  0.998933  0.363871  0.749833  0  .  1
   K  K3  1  0.501060  0.636088  0.249675  0  .  1
   K  K4  1  0.500183  0.963232  0.750965  0  .  1
   Co  Co5  1  0.998878  0.999531  0.998109  0  .  1
   Co  Co6  1  0.000006  0.999757  0.501365  0  .  1
   Co  Co7  1  0.251505  0.500042  0.000069  0  .  1
   Co  Co8  1  0.248464  0.499944  0.500070  0  .  1
   Co  Co9  1  0.500002  0.000246  0.001362  0  .  1
   Co  Co10  1  0.501130  0.000437  0.498099  0  .  1
   Co  Co11  1  0.750187  0.499944  0.500039  0  .  1
   Co  Co12  1  0.749859  0.500047  0.000038  0  .  1
   O  O13  1  0.002897  0.336344  0.424200  0  .  1
   O  O14  1  0.002092  0.330673  0.075628  0  .  1
   O  O15  1  0.002723  0.665226  0.577286  0  .  1
   O  O16  1  0.001852  0.670048  0.922598  0  .  1
   O  O17  1  0.250329  0.831800  0.421837  0  .  1
   O  O18  1  0.247080  0.832401  0.078232  0  .  1
   O  O19  1  0.252909  0.167954  0.578177  0  .  1
   O  O20  1  0.249533  0.167782  0.921789  0  .  1
   O  O21  1  0.498322  0.329667  0.422576  0  .  1
   O  O22  1  0.497143  0.334957  0.077205  0  .  1
   O  O23  1  0.497929  0.669479  0.575650  0  .  1
   O  O24  1  0.497080  0.663565  0.924274  0  .  1
   O  O25  1  0.748831  0.836530  0.421945  0  .  1
   O  O26  1  0.753677  0.836887  0.078059  0  .  1
   O  O27  1  0.746409  0.163270  0.578015  0  .  1
   O  O28  1  0.751255  0.163337  0.921901  0  .  1
 
