#\#CIF1.1
##########################################################################
#               Crystallographic Information Format file 
#               Produced by PyCifRW module
# 
#  This is a CIF file.  CIF has been adopted by the International
#  Union of Crystallography as the standard for data archiving and 
#  transmission.
#
#  For information on this file format, follow the CIF links at
#  http://www.iucr.org
##########################################################################

data_K(CuSe)2
_symmetry_space_group_name_H-M          'P 1'
_cell_length_a                          3.9811641833
_cell_length_b                          3.98186366362
_cell_length_c                          7.41106280882
_cell_angle_alpha                       105.547560809
_cell_angle_beta                        105.547357397
_cell_angle_gamma                       90.1373011075
_chemical_name_systematic               'Generated by pymatgen'
_symmetry_Int_Tables_number             1
_chemical_formula_structural            K(CuSe)2
_chemical_formula_sum                   'K1 Cu2 Se2'
_cell_volume                            108.693711946
_cell_formula_units_Z                   1
loop_
  _symmetry_equiv_pos_site_id
  _symmetry_equiv_pos_as_xyz
   1  'x, y, z'
 
loop_
  _atom_site_type_symbol
  _atom_site_label
  _atom_site_symmetry_multiplicity
  _atom_site_fract_x
  _atom_site_fract_y
  _atom_site_fract_z
  _atom_site_attached_hydrogens
  _atom_site_B_iso_or_equiv
  _atom_site_occupancy
   K  K1  1  0.500000  0.500000  0.000000  0  .  1
   Cu  Cu2  1  0.750033  0.249983  0.499987  0  .  1
   Cu  Cu3  1  0.249967  0.750017  0.500013  0  .  1
   Se  Se4  1  0.142694  0.142718  0.285905  0  .  1
   Se  Se5  1  0.857306  0.857282  0.714094  0  .  1
 
