#\#CIF1.1
##########################################################################
#               Crystallographic Information Format file 
#               Produced by PyCifRW module
# 
#  This is a CIF file.  CIF has been adopted by the International
#  Union of Crystallography as the standard for data archiving and 
#  transmission.
#
#  For information on this file format, follow the CIF links at
#  http://www.iucr.org
##########################################################################

data_K2(CuTe)5
_symmetry_space_group_name_H-M          'P 1'
_cell_length_a                          4.1340278
_cell_length_b                          8.29879311339
_cell_length_c                          18.84191546
_cell_angle_alpha                       90.0
_cell_angle_beta                        90.0
_cell_angle_gamma                       104.42272522
_chemical_name_systematic               'Generated by pymatgen'
_symmetry_Int_Tables_number             1
_chemical_formula_structural            K2(CuTe)5
_chemical_formula_sum                   'K4 Cu10 Te10'
_cell_volume                            626.045693331
_cell_formula_units_Z                   2
loop_
  _symmetry_equiv_pos_site_id
  _symmetry_equiv_pos_as_xyz
   1  'x, y, z'
 
loop_
  _atom_site_type_symbol
  _atom_site_label
  _atom_site_symmetry_multiplicity
  _atom_site_fract_x
  _atom_site_fract_y
  _atom_site_fract_z
  _atom_site_attached_hydrogens
  _atom_site_B_iso_or_equiv
  _atom_site_occupancy
   K  K1  1  0.482672  0.965344  0.118049  0  .  1
   K  K2  1  0.517328  0.034656  0.881951  0  .  1
   K  K3  1  0.517328  0.034656  0.618049  0  .  1
   K  K4  1  0.482672  0.965344  0.381951  0  .  1
   Cu  Cu5  1  0.326086  0.652172  0.750000  0  .  1
   Cu  Cu6  1  0.673914  0.347828  0.250000  0  .  1
   Cu  Cu7  1  0.276182  0.552363  0.957051  0  .  1
   Cu  Cu8  1  0.723818  0.447637  0.042949  0  .  1
   Cu  Cu9  1  0.723818  0.447637  0.457051  0  .  1
   Cu  Cu10  1  0.276182  0.552363  0.542949  0  .  1
   Cu  Cu11  1  0.199487  0.398974  0.352927  0  .  1
   Cu  Cu12  1  0.800513  0.601026  0.647073  0  .  1
   Cu  Cu13  1  0.800513  0.601026  0.852927  0  .  1
   Cu  Cu14  1  0.199487  0.398974  0.147073  0  .  1
   Te  Te15  1  0.920837  0.841675  0.750000  0  .  1
   Te  Te16  1  0.079163  0.158325  0.250000  0  .  1
   Te  Te17  1  0.803116  0.606232  0.166661  0  .  1
   Te  Te18  1  0.196884  0.393768  0.833339  0  .  1
   Te  Te19  1  0.196884  0.393768  0.666661  0  .  1
   Te  Te20  1  0.803116  0.606232  0.333339  0  .  1
   Te  Te21  1  0.128333  0.256667  0.020296  0  .  1
   Te  Te22  1  0.871667  0.743333  0.979704  0  .  1
   Te  Te23  1  0.871667  0.743333  0.520296  0  .  1
   Te  Te24  1  0.128333  0.256667  0.479704  0  .  1
 
