#\#CIF1.1
##########################################################################
#               Crystallographic Information Format file 
#               Produced by PyCifRW module
# 
#  This is a CIF file.  CIF has been adopted by the International
#  Union of Crystallography as the standard for data archiving and 
#  transmission.
#
#  For information on this file format, follow the CIF links at
#  http://www.iucr.org
##########################################################################

data_K2CoSe2
_symmetry_space_group_name_H-M          'P 1'
_cell_length_a                          6.23479696924
_cell_length_b                          7.03741588629
_cell_length_c                          8.13370608012
_cell_angle_alpha                       115.633197304
_cell_angle_beta                        112.536327944
_cell_angle_gamma                       90.0000000043
_chemical_name_systematic               'Generated by pymatgen'
_symmetry_Int_Tables_number             1
_chemical_formula_structural            K2CoSe2
_chemical_formula_sum                   'K4 Co2 Se4'
_cell_volume                            291.236914957
_cell_formula_units_Z                   2
loop_
  _symmetry_equiv_pos_site_id
  _symmetry_equiv_pos_as_xyz
   1  'x, y, z'
 
loop_
  _atom_site_type_symbol
  _atom_site_label
  _atom_site_symmetry_multiplicity
  _atom_site_fract_x
  _atom_site_fract_y
  _atom_site_fract_z
  _atom_site_attached_hydrogens
  _atom_site_B_iso_or_equiv
  _atom_site_occupancy
   K  K1  1  0.144157  0.471525  0.288313  0  .  1
   K  K2  1  0.855843  0.528475  0.711687  0  .  1
   K  K3  1  0.355843  0.183212  0.711687  0  .  1
   K  K4  1  0.644157  0.816788  0.288313  0  .  1
   Co  Co5  1  0.250000  0.000000  0.000000  0  .  1
   Co  Co6  1  0.750000  0.000000  0.000000  0  .  1
   Se  Se7  1  0.898495  0.082785  0.796989  0  .  1
   Se  Se8  1  0.101505  0.917215  0.203011  0  .  1
   Se  Se9  1  0.601505  0.285796  0.203011  0  .  1
   Se  Se10  1  0.398495  0.714204  0.796989  0  .  1
 
