#\#CIF1.1
##########################################################################
#               Crystallographic Information Format file 
#               Produced by PyCifRW module
# 
#  This is a CIF file.  CIF has been adopted by the International
#  Union of Crystallography as the standard for data archiving and 
#  transmission.
#
#  For information on this file format, follow the CIF links at
#  http://www.iucr.org
##########################################################################

data_K2Cr4O13
_symmetry_space_group_name_H-M          'P 1'
_cell_length_a                          7.70253148
_cell_length_b                          8.94633705375
_cell_length_c                          9.56068421742
_cell_angle_alpha                       92.485961206
_cell_angle_beta                        90.0
_cell_angle_gamma                       90.0
_chemical_name_systematic               'Generated by pymatgen'
_symmetry_Int_Tables_number             1
_chemical_formula_structural            K2Cr4O13
_chemical_formula_sum                   'K4 Cr8 O26'
_cell_volume                            658.201391644
_cell_formula_units_Z                   2
loop_
  _symmetry_equiv_pos_site_id
  _symmetry_equiv_pos_as_xyz
   1  'x, y, z'
 
loop_
  _atom_site_type_symbol
  _atom_site_label
  _atom_site_symmetry_multiplicity
  _atom_site_fract_x
  _atom_site_fract_y
  _atom_site_fract_z
  _atom_site_attached_hydrogens
  _atom_site_B_iso_or_equiv
  _atom_site_occupancy
   K  K1  1  0.593235  0.197690  0.757571  0  .  1
   K  K2  1  0.406765  0.197690  0.257571  0  .  1
   K  K3  1  0.104284  0.456708  0.896006  0  .  1
   K  K4  1  0.895716  0.456708  0.396006  0  .  1
   Cr  Cr5  1  0.571872  0.484268  0.032226  0  .  1
   Cr  Cr6  1  0.428128  0.484268  0.532226  0  .  1
   Cr  Cr7  1  0.566200  0.828140  0.987179  0  .  1
   Cr  Cr8  1  0.433800  0.828140  0.487179  0  .  1
   Cr  Cr9  1  0.892438  0.819281  0.756053  0  .  1
   Cr  Cr10  1  0.107562  0.819281  0.256053  0  .  1
   Cr  Cr11  1  0.070112  0.141983  0.631757  0  .  1
   Cr  Cr12  1  0.929888  0.141983  0.131757  0  .  1
   O  O13  1  0.741610  0.467686  0.931646  0  .  1
   O  O14  1  0.258390  0.467686  0.431646  0  .  1
   O  O15  1  0.456940  0.658141  0.992432  0  .  1
   O  O16  1  0.543060  0.658141  0.492432  0  .  1
   O  O17  1  0.438594  0.344734  0.999695  0  .  1
   O  O18  1  0.561406  0.344734  0.499695  0  .  1
   O  O19  1  0.627091  0.488788  0.196055  0  .  1
   O  O20  1  0.372909  0.488788  0.696055  0  .  1
   O  O21  1  0.430770  0.964140  0.004013  0  .  1
   O  O22  1  0.569230  0.964140  0.504013  0  .  1
   O  O23  1  0.701508  0.836886  0.113579  0  .  1
   O  O24  1  0.298492  0.836886  0.613579  0  .  1
   O  O25  1  0.677800  0.840327  0.825550  0  .  1
   O  O26  1  0.322200  0.840327  0.325550  0  .  1
   O  O27  1  0.897247  0.671289  0.654998  0  .  1
   O  O28  1  0.102753  0.671289  0.154998  0  .  1
   O  O29  1  0.027601  0.797689  0.879954  0  .  1
   O  O30  1  0.972399  0.797689  0.379954  0  .  1
   O  O31  1  0.150290  0.129155  0.474345  0  .  1
   O  O32  1  0.849710  0.129155  0.974345  0  .  1
   O  O33  1  0.225263  0.163419  0.745821  0  .  1
   O  O34  1  0.774737  0.163419  0.245821  0  .  1
   O  O35  1  0.938213  0.976641  0.664570  0  .  1
   O  O36  1  0.061787  0.976641  0.164570  0  .  1
   O  O37  1  0.940092  0.286587  0.646888  0  .  1
   O  O38  1  0.059908  0.286587  0.146888  0  .  1
 
