#\#CIF1.1
##########################################################################
#               Crystallographic Information Format file 
#               Produced by PyCifRW module
# 
#  This is a CIF file.  CIF has been adopted by the International
#  Union of Crystallography as the standard for data archiving and 
#  transmission.
#
#  For information on this file format, follow the CIF links at
#  http://www.iucr.org
##########################################################################

data_K2Cr3O10
_symmetry_space_group_name_H-M          'P 1'
_cell_length_a                          7.63128219225
_cell_length_b                          7.67821004698
_cell_length_c                          18.23116766
_cell_angle_alpha                       90.0
_cell_angle_beta                        90.0
_cell_angle_gamma                       100.118764817
_chemical_name_systematic               'Generated by pymatgen'
_symmetry_Int_Tables_number             1
_chemical_formula_structural            K2Cr3O10
_chemical_formula_sum                   'K8 Cr12 O40'
_cell_volume                            1051.63189725
_cell_formula_units_Z                   4
loop_
  _symmetry_equiv_pos_site_id
  _symmetry_equiv_pos_as_xyz
   1  'x, y, z'
 
loop_
  _atom_site_type_symbol
  _atom_site_label
  _atom_site_symmetry_multiplicity
  _atom_site_fract_x
  _atom_site_fract_y
  _atom_site_fract_z
  _atom_site_attached_hydrogens
  _atom_site_B_iso_or_equiv
  _atom_site_occupancy
   O  O1  1  0.293734  0.889092  0.309739  0  .  1
   O  O2  1  0.206266  0.610908  0.809739  0  .  1
   O  O3  1  0.706266  0.110908  0.690261  0  .  1
   O  O4  1  0.793734  0.389092  0.190261  0  .  1
   O  O5  1  0.786617  0.422159  0.430748  0  .  1
   O  O6  1  0.713383  0.077842  0.930748  0  .  1
   O  O7  1  0.213383  0.577841  0.569252  0  .  1
   O  O8  1  0.286618  0.922158  0.069252  0  .  1
   O  O9  1  0.375039  0.189444  0.235791  0  .  1
   O  O10  1  0.124961  0.310556  0.735791  0  .  1
   O  O11  1  0.624960  0.810556  0.764209  0  .  1
   O  O12  1  0.875039  0.689444  0.264209  0  .  1
   O  O13  1  0.738784  0.452615  0.024778  0  .  1
   O  O14  1  0.761217  0.047385  0.524778  0  .  1
   O  O15  1  0.378966  0.252912  0.937400  0  .  1
   O  O16  1  0.238784  0.952615  0.475222  0  .  1
   O  O17  1  0.413438  0.052842  0.774468  0  .  1
   O  O18  1  0.086561  0.447158  0.274468  0  .  1
   O  O19  1  0.586561  0.947158  0.225532  0  .  1
   O  O20  1  0.913440  0.552842  0.725532  0  .  1
   O  O21  1  0.992595  0.967512  0.137707  0  .  1
   O  O22  1  0.507406  0.532488  0.637707  0  .  1
   O  O23  1  0.007406  0.032488  0.862293  0  .  1
   O  O24  1  0.492595  0.467512  0.362293  0  .  1
   O  O25  1  0.969363  0.776765  0.010202  0  .  1
   O  O26  1  0.530637  0.723235  0.510201  0  .  1
   O  O27  1  0.030637  0.223235  0.989798  0  .  1
   O  O28  1  0.469363  0.276765  0.489799  0  .  1
   O  O29  1  0.093263  0.645228  0.145238  0  .  1
   O  O30  1  0.406737  0.854773  0.645238  0  .  1
   O  O31  1  0.906737  0.354772  0.854762  0  .  1
   O  O32  1  0.593263  0.145228  0.354762  0  .  1
   O  O33  1  0.662602  0.670528  0.920362  0  .  1
   O  O34  1  0.837398  0.829472  0.420362  0  .  1
   O  O35  1  0.337398  0.329472  0.079638  0  .  1
   O  O36  1  0.162602  0.170528  0.579638  0  .  1
   O  O37  1  0.878966  0.752912  0.562600  0  .  1
   O  O38  1  0.621035  0.747088  0.062600  0  .  1
   O  O39  1  0.121034  0.247088  0.437400  0  .  1
   O  O40  1  0.261216  0.547385  0.975222  0  .  1
   K  K41  1  0.525810  0.435181  0.802784  0  .  1
   K  K42  1  0.974191  0.064819  0.302784  0  .  1
   K  K43  1  0.474190  0.564819  0.197216  0  .  1
   K  K44  1  0.025811  0.935181  0.697216  0  .  1
   K  K45  1  0.864445  0.371130  0.590533  0  .  1
   K  K46  1  0.635555  0.128871  0.090533  0  .  1
   K  K47  1  0.135556  0.628870  0.409467  0  .  1
   K  K48  1  0.364445  0.871129  0.909467  0  .  1
   Cr  Cr49  1  0.543388  0.962077  0.720718  0  .  1
   Cr  Cr50  1  0.043388  0.462077  0.779282  0  .  1
   Cr  Cr51  1  0.456612  0.037923  0.279282  0  .  1
   Cr  Cr52  1  0.956612  0.537923  0.220718  0  .  1
   Cr  Cr53  1  0.586608  0.331914  0.408945  0  .  1
   Cr  Cr54  1  0.913392  0.168087  0.908945  0  .  1
   Cr  Cr55  1  0.413391  0.668086  0.591055  0  .  1
   Cr  Cr56  1  0.086609  0.831913  0.091055  0  .  1
   Cr  Cr57  1  0.238418  0.157104  0.496755  0  .  1
   Cr  Cr58  1  0.261582  0.342896  0.996756  0  .  1
   Cr  Cr59  1  0.761582  0.842896  0.503245  0  .  1
   Cr  Cr60  1  0.738418  0.657104  0.003244  0  .  1
 
