#\#CIF1.1
##########################################################################
#               Crystallographic Information Format file 
#               Produced by PyCifRW module
# 
#  This is a CIF file.  CIF has been adopted by the International
#  Union of Crystallography as the standard for data archiving and 
#  transmission.
#
#  For information on this file format, follow the CIF links at
#  http://www.iucr.org
##########################################################################

data_K2MnV4O12
_symmetry_space_group_name_H-M          'P 1'
_cell_length_a                          8.41777411042
_cell_length_b                          8.7002251263
_cell_length_c                          9.55658745
_cell_angle_alpha                       90.0
_cell_angle_beta                        90.0
_cell_angle_gamma                       109.644246143
_chemical_name_systematic               'Generated by pymatgen'
_symmetry_Int_Tables_number             1
_chemical_formula_structural            K2MnV4O12
_chemical_formula_sum                   'K4 Mn2 V8 O24'
_cell_volume                            659.156313976
_cell_formula_units_Z                   2
loop_
  _symmetry_equiv_pos_site_id
  _symmetry_equiv_pos_as_xyz
   1  'x, y, z'
 
loop_
  _atom_site_type_symbol
  _atom_site_label
  _atom_site_symmetry_multiplicity
  _atom_site_fract_x
  _atom_site_fract_y
  _atom_site_fract_z
  _atom_site_attached_hydrogens
  _atom_site_B_iso_or_equiv
  _atom_site_occupancy
   O  O1  1  0.641015  0.251424  0.105577  0  .  1
   O  O2  1  0.858985  0.248576  0.605577  0  .  1
   O  O3  1  0.358985  0.748576  0.894423  0  .  1
   O  O4  1  0.141015  0.751424  0.394423  0  .  1
   O  O5  1  0.844397  0.146703  0.930769  0  .  1
   O  O6  1  0.655603  0.353297  0.430769  0  .  1
   O  O7  1  0.155603  0.853297  0.069231  0  .  1
   O  O8  1  0.344397  0.646703  0.569231  0  .  1
   O  O9  1  0.174021  0.100239  0.832752  0  .  1
   O  O10  1  0.325979  0.399761  0.332752  0  .  1
   O  O11  1  0.825979  0.899761  0.167248  0  .  1
   O  O12  1  0.674021  0.600239  0.667248  0  .  1
   O  O13  1  0.360846  0.304716  0.635977  0  .  1
   O  O14  1  0.139154  0.195284  0.135977  0  .  1
   O  O15  1  0.819265  0.466422  0.895770  0  .  1
   O  O16  1  0.680735  0.033578  0.395770  0  .  1
   O  O17  1  0.180735  0.533578  0.104230  0  .  1
   O  O18  1  0.319265  0.966422  0.604230  0  .  1
   O  O19  1  0.030191  0.657652  0.673963  0  .  1
   O  O20  1  0.469809  0.842348  0.173963  0  .  1
   O  O21  1  0.969809  0.342348  0.326037  0  .  1
   O  O22  1  0.530191  0.157652  0.826037  0  .  1
   O  O23  1  0.860846  0.804716  0.864023  0  .  1
   O  O24  1  0.639154  0.695284  0.364023  0  .  1
   K  K25  1  0.631442  0.904500  0.710879  0  .  1
   K  K26  1  0.868558  0.595500  0.210879  0  .  1
   K  K27  1  0.368558  0.095500  0.289121  0  .  1
   K  K28  1  0.131442  0.404500  0.789121  0  .  1
   V  V29  1  0.707860  0.252081  0.942446  0  .  1
   V  V30  1  0.792140  0.247919  0.442446  0  .  1
   V  V31  1  0.292140  0.747919  0.057554  0  .  1
   V  V32  1  0.207860  0.752081  0.557554  0  .  1
   V  V33  1  0.341116  0.132256  0.726001  0  .  1
   V  V34  1  0.158884  0.367744  0.226001  0  .  1
   V  V35  1  0.658884  0.867744  0.273999  0  .  1
   V  V36  1  0.841116  0.632256  0.773999  0  .  1
   Mn  Mn37  1  0.500000  0.500000  0.500000  0  .  1
   Mn  Mn38  1  0.000000  0.000000  0.000000  0  .  1
 
