#\#CIF1.1
##########################################################################
#               Crystallographic Information Format file 
#               Produced by PyCifRW module
# 
#  This is a CIF file.  CIF has been adopted by the International
#  Union of Crystallography as the standard for data archiving and 
#  transmission.
#
#  For information on this file format, follow the CIF links at
#  http://www.iucr.org
##########################################################################

data_K2MnTe2
_symmetry_space_group_name_H-M          'P 1'
_cell_length_a                          7.00604225138
_cell_length_b                          7.49967045017
_cell_length_c                          8.8037862497
_cell_angle_alpha                       115.209820848
_cell_angle_beta                        113.44692429
_cell_angle_gamma                       90.0000000531
_chemical_name_systematic               'Generated by pymatgen'
_symmetry_Int_Tables_number             1
_chemical_formula_structural            K2MnTe2
_chemical_formula_sum                   'K4 Mn2 Te4'
_cell_volume                            375.872537139
_cell_formula_units_Z                   2
loop_
  _symmetry_equiv_pos_site_id
  _symmetry_equiv_pos_as_xyz
   1  'x, y, z'
 
loop_
  _atom_site_type_symbol
  _atom_site_label
  _atom_site_symmetry_multiplicity
  _atom_site_fract_x
  _atom_site_fract_y
  _atom_site_fract_z
  _atom_site_attached_hydrogens
  _atom_site_B_iso_or_equiv
  _atom_site_occupancy
   K  K1  1  0.142646  0.465328  0.285292  0  .  1
   K  K2  1  0.857354  0.534672  0.714708  0  .  1
   K  K3  1  0.357354  0.180036  0.714708  0  .  1
   K  K4  1  0.642646  0.819964  0.285292  0  .  1
   Mn  Mn5  1  0.250000  0.000000  0.000000  0  .  1
   Mn  Mn6  1  0.750000  0.000000  0.000000  0  .  1
   Te  Te7  1  0.892426  0.089823  0.784852  0  .  1
   Te  Te8  1  0.107574  0.910177  0.215148  0  .  1
   Te  Te9  1  0.607574  0.304972  0.215148  0  .  1
   Te  Te10  1  0.392426  0.695028  0.784852  0  .  1
 
