#\#CIF1.1
##########################################################################
#               Crystallographic Information Format file 
#               Produced by PyCifRW module
# 
#  This is a CIF file.  CIF has been adopted by the International
#  Union of Crystallography as the standard for data archiving and 
#  transmission.
#
#  For information on this file format, follow the CIF links at
#  http://www.iucr.org
##########################################################################

data_K2Ni3S4
_symmetry_space_group_name_H-M          'P 1'
_cell_length_a                          5.75771626906
_cell_length_b                          5.81409723235
_cell_length_c                          13.4470419019
_cell_angle_alpha                       83.9148558842
_cell_angle_beta                        77.6379381006
_cell_angle_gamma                       60.3202684589
_chemical_name_systematic               'Generated by pymatgen'
_symmetry_Int_Tables_number             1
_chemical_formula_structural            K2Ni3S4
_chemical_formula_sum                   'K4 Ni6 S8'
_cell_volume                            382.027363271
_cell_formula_units_Z                   2
loop_
  _symmetry_equiv_pos_site_id
  _symmetry_equiv_pos_as_xyz
   1  'x, y, z'
 
loop_
  _atom_site_type_symbol
  _atom_site_label
  _atom_site_symmetry_multiplicity
  _atom_site_fract_x
  _atom_site_fract_y
  _atom_site_fract_z
  _atom_site_attached_hydrogens
  _atom_site_B_iso_or_equiv
  _atom_site_occupancy
   S  S1  1  0.240486  0.417835  0.859968  0  .  1
   S  S2  1  0.018290  0.082165  0.640032  0  .  1
   S  S3  1  0.341678  0.417835  0.640032  0  .  1
   S  S4  1  0.899545  0.082165  0.859968  0  .  1
   S  S5  1  0.759514  0.582165  0.140032  0  .  1
   S  S6  1  0.981710  0.917835  0.359968  0  .  1
   S  S7  1  0.100455  0.917835  0.140032  0  .  1
   S  S8  1  0.658322  0.582165  0.359968  0  .  1
   K  K9  1  0.546830  0.750000  0.906340  0  .  1
   K  K10  1  0.703170  0.750000  0.593660  0  .  1
   K  K11  1  0.453170  0.250000  0.093660  0  .  1
   K  K12  1  0.296830  0.250000  0.406340  0  .  1
   Ni  Ni13  1  0.625729  0.250000  0.748542  0  .  1
   Ni  Ni14  1  0.124271  0.250000  0.751458  0  .  1
   Ni  Ni15  1  0.374271  0.750000  0.251458  0  .  1
   Ni  Ni16  1  0.875729  0.750000  0.248542  0  .  1
   Ni  Ni17  1  0.125000  0.750000  0.750000  0  .  1
   Ni  Ni18  1  0.875000  0.250000  0.250000  0  .  1
 
