#\#CIF1.1
##########################################################################
#               Crystallographic Information Format file 
#               Produced by PyCifRW module
# 
#  This is a CIF file.  CIF has been adopted by the International
#  Union of Crystallography as the standard for data archiving and 
#  transmission.
#
#  For information on this file format, follow the CIF links at
#  http://www.iucr.org
##########################################################################

data_K2TiS3
_symmetry_space_group_name_H-M          'P 1'
_cell_length_a                          6.53845576925
_cell_length_b                          7.27657224588
_cell_length_c                          7.27657223793
_cell_angle_alpha                       70.6055629726
_cell_angle_beta                        88.5635620474
_cell_angle_gamma                       88.5635620823
_chemical_name_systematic               'Generated by pymatgen'
_symmetry_Int_Tables_number             1
_chemical_formula_structural            K2TiS3
_chemical_formula_sum                   'K4 Ti2 S6'
_cell_volume                            326.402125475
_cell_formula_units_Z                   2
loop_
  _symmetry_equiv_pos_site_id
  _symmetry_equiv_pos_as_xyz
   1  'x, y, z'
 
loop_
  _atom_site_type_symbol
  _atom_site_label
  _atom_site_symmetry_multiplicity
  _atom_site_fract_x
  _atom_site_fract_y
  _atom_site_fract_z
  _atom_site_attached_hydrogens
  _atom_site_B_iso_or_equiv
  _atom_site_occupancy
   S  S1  1  0.250000  0.348610  0.651390  0  .  1
   S  S2  1  0.750000  0.651390  0.348610  0  .  1
   S  S3  1  1.000325  0.869789  0.856162  0  .  1
   S  S4  1  0.499675  0.143838  0.130211  0  .  1
   S  S5  1  0.500325  0.856162  0.869789  0  .  1
   S  S6  1  -0.000325  0.130211  0.143838  0  .  1
   K  K7  1  0.736819  0.175710  0.505483  0  .  1
   K  K8  1  0.236819  0.505483  0.175710  0  .  1
   K  K9  1  0.763181  0.494517  0.824290  0  .  1
   K  K10  1  0.263181  0.824290  0.494517  0  .  1
   Ti  Ti11  1  0.750000  0.915195  0.084805  0  .  1
   Ti  Ti12  1  0.250000  0.084805  0.915195  0  .  1
 
