#\#CIF1.1
##########################################################################
#               Crystallographic Information Format file 
#               Produced by PyCifRW module
# 
#  This is a CIF file.  CIF has been adopted by the International
#  Union of Crystallography as the standard for data archiving and 
#  transmission.
#
#  For information on this file format, follow the CIF links at
#  http://www.iucr.org
##########################################################################

data_K2Ti8O17
_symmetry_space_group_name_H-M          'P 1'
_cell_length_a                          3.80722328
_cell_length_b                          8.18184922303
_cell_length_c                          12.1089246497
_cell_angle_alpha                       84.4697951828
_cell_angle_beta                        90.0
_cell_angle_gamma                       76.5461058542
_chemical_name_systematic               'Generated by pymatgen'
_symmetry_Int_Tables_number             1
_chemical_formula_structural            K2Ti8O17
_chemical_formula_sum                   'K2 Ti8 O17'
_cell_volume                            365.037942068
_cell_formula_units_Z                   1
loop_
  _symmetry_equiv_pos_site_id
  _symmetry_equiv_pos_as_xyz
   1  'x, y, z'
 
loop_
  _atom_site_type_symbol
  _atom_site_label
  _atom_site_symmetry_multiplicity
  _atom_site_fract_x
  _atom_site_fract_y
  _atom_site_fract_z
  _atom_site_attached_hydrogens
  _atom_site_B_iso_or_equiv
  _atom_site_occupancy
   K  K1  1  0.555518  0.888964  0.804839  0  .  1
   K  K2  1  0.444482  0.111036  0.195161  0  .  1
   Ti  Ti3  1  0.109844  0.780310  0.070814  0  .  1
   Ti  Ti4  1  0.151244  0.697513  0.327556  0  .  1
   Ti  Ti5  1  0.194994  0.610012  0.575661  0  .  1
   Ti  Ti6  1  0.242703  0.514592  0.831616  0  .  1
   Ti  Ti7  1  0.757297  0.485408  0.168384  0  .  1
   Ti  Ti8  1  0.805006  0.389988  0.424339  0  .  1
   Ti  Ti9  1  0.848756  0.302487  0.672444  0  .  1
   Ti  Ti10  1  0.890156  0.219690  0.929186  0  .  1
   O  O11  1  0.064820  0.870359  0.218247  0  .  1
   O  O12  1  0.108168  0.783663  0.462684  0  .  1
   O  O13  1  0.152942  0.694116  0.710833  0  .  1
   O  O14  1  0.171418  0.657164  0.936448  0  .  1
   O  O15  1  0.636406  0.727189  0.084825  0  .  1
   O  O16  1  0.685593  0.628814  0.321785  0  .  1
   O  O17  1  0.727965  0.544070  0.567863  0  .  1
   O  O18  1  0.772597  0.454805  0.818850  0  .  1
   O  O19  1  0.227403  0.545195  0.181150  0  .  1
   O  O20  1  0.272035  0.455930  0.432137  0  .  1
   O  O21  1  0.314407  0.371186  0.678215  0  .  1
   O  O22  1  0.363594  0.272811  0.915175  0  .  1
   O  O23  1  0.828582  0.342836  0.063552  0  .  1
   O  O24  1  0.847058  0.305884  0.289167  0  .  1
   O  O25  1  0.891832  0.216337  0.537316  0  .  1
   O  O26  1  0.935180  0.129641  0.781753  0  .  1
   O  O27  1  0.000000  0.000000  0.000000  0  .  1
 
