#\#CIF1.1
##########################################################################
#               Crystallographic Information Format file 
#               Produced by PyCifRW module
# 
#  This is a CIF file.  CIF has been adopted by the International
#  Union of Crystallography as the standard for data archiving and 
#  transmission.
#
#  For information on this file format, follow the CIF links at
#  http://www.iucr.org
##########################################################################

data_K2Zn6O7
_symmetry_space_group_name_H-M          'P 1'
_cell_length_a                          3.37145057
_cell_length_b                          11.03669482
_cell_length_c                          11.03669482
_cell_angle_alpha                       90.0
_cell_angle_beta                        90.0
_cell_angle_gamma                       90.0
_chemical_name_systematic               'Generated by pymatgen'
_symmetry_Int_Tables_number             1
_chemical_formula_structural            K2Zn6O7
_chemical_formula_sum                   'K4 Zn12 O14'
_cell_volume                            410.671783641
_cell_formula_units_Z                   2
loop_
  _symmetry_equiv_pos_site_id
  _symmetry_equiv_pos_as_xyz
   1  'x, y, z'
 
loop_
  _atom_site_type_symbol
  _atom_site_label
  _atom_site_symmetry_multiplicity
  _atom_site_fract_x
  _atom_site_fract_y
  _atom_site_fract_z
  _atom_site_attached_hydrogens
  _atom_site_B_iso_or_equiv
  _atom_site_occupancy
   K  K1  1  0.629422  0.359653  0.359653  0  .  1
   K  K2  1  0.129422  0.140347  0.859653  0  .  1
   K  K3  1  0.129422  0.859653  0.140347  0  .  1
   K  K4  1  0.629422  0.640347  0.640347  0  .  1
   Zn  Zn5  1  0.137545  0.348347  0.087450  0  .  1
   Zn  Zn6  1  0.637545  0.412550  0.848347  0  .  1
   Zn  Zn7  1  0.637545  0.587450  0.151653  0  .  1
   Zn  Zn8  1  0.137545  0.651653  0.912550  0  .  1
   Zn  Zn9  1  0.637545  0.151653  0.587450  0  .  1
   Zn  Zn10  1  0.637545  0.848347  0.412550  0  .  1
   Zn  Zn11  1  0.137545  0.912550  0.651653  0  .  1
   Zn  Zn12  1  0.137545  0.087450  0.348347  0  .  1
   Zn  Zn13  1  0.637088  0.121186  0.121186  0  .  1
   Zn  Zn14  1  0.137088  0.378814  0.621186  0  .  1
   Zn  Zn15  1  0.137088  0.621186  0.378814  0  .  1
   Zn  Zn16  1  0.637088  0.878814  0.878814  0  .  1
   O  O17  1  0.637582  0.312562  0.996179  0  .  1
   O  O18  1  0.137582  0.503821  0.812562  0  .  1
   O  O19  1  0.137582  0.496179  0.187438  0  .  1
   O  O20  1  0.637582  0.687438  0.003821  0  .  1
   O  O21  1  0.137582  0.187438  0.496179  0  .  1
   O  O22  1  0.137582  0.812562  0.503821  0  .  1
   O  O23  1  0.637582  0.003821  0.687438  0  .  1
   O  O24  1  0.637582  0.996179  0.312562  0  .  1
   O  O25  1  0.135929  0.191815  0.191815  0  .  1
   O  O26  1  0.635929  0.308185  0.691815  0  .  1
   O  O27  1  0.635929  0.691815  0.308185  0  .  1
   O  O28  1  0.135929  0.808185  0.808185  0  .  1
   O  O29  1  0.620615  0.000000  0.000000  0  .  1
   O  O30  1  0.120615  0.500000  0.500000  0  .  1
 
