#\#CIF1.1
##########################################################################
#               Crystallographic Information Format file 
#               Produced by PyCifRW module
# 
#  This is a CIF file.  CIF has been adopted by the International
#  Union of Crystallography as the standard for data archiving and 
#  transmission.
#
#  For information on this file format, follow the CIF links at
#  http://www.iucr.org
##########################################################################

data_K2ZnO2
_symmetry_space_group_name_H-M          'P 1'
_cell_length_a                          5.50031847659
_cell_length_b                          6.0931938477
_cell_length_c                          6.6760808192
_cell_angle_alpha                       117.15151524
_cell_angle_beta                        114.326897604
_cell_angle_gamma                       89.9999999745
_chemical_name_systematic               'Generated by pymatgen'
_symmetry_Int_Tables_number             1
_chemical_formula_structural            K2ZnO2
_chemical_formula_sum                   'K4 Zn2 O4'
_cell_volume                            176.468840811
_cell_formula_units_Z                   2
loop_
  _symmetry_equiv_pos_site_id
  _symmetry_equiv_pos_as_xyz
   1  'x, y, z'
 
loop_
  _atom_site_type_symbol
  _atom_site_label
  _atom_site_symmetry_multiplicity
  _atom_site_fract_x
  _atom_site_fract_y
  _atom_site_fract_z
  _atom_site_attached_hydrogens
  _atom_site_B_iso_or_equiv
  _atom_site_occupancy
   O  O1  1  0.404548  0.718938  0.809095  0  .  1
   O  O2  1  0.595452  0.281062  0.190905  0  .  1
   O  O3  1  0.095452  0.909842  0.190905  0  .  1
   O  O4  1  0.904548  0.090158  0.809095  0  .  1
   K  K5  1  0.347698  0.211349  0.695396  0  .  1
   K  K6  1  0.652302  0.788651  0.304604  0  .  1
   K  K7  1  0.847698  0.484047  0.695396  0  .  1
   K  K8  1  0.152302  0.515953  0.304604  0  .  1
   Zn  Zn9  1  0.750000  0.000000  0.000000  0  .  1
   Zn  Zn10  1  0.250000  0.000000  0.000000  0  .  1
 
