#\#CIF1.1
##########################################################################
#               Crystallographic Information Format file 
#               Produced by PyCifRW module
# 
#  This is a CIF file.  CIF has been adopted by the International
#  Union of Crystallography as the standard for data archiving and 
#  transmission.
#
#  For information on this file format, follow the CIF links at
#  http://www.iucr.org
##########################################################################

data_K2Zn3O4
_symmetry_space_group_name_H-M          'P 1'
_cell_length_a                          5.82898721865
_cell_length_b                          6.46695761659
_cell_length_c                          8.17651207415
_cell_angle_alpha                       113.294633845
_cell_angle_beta                        102.145522253
_cell_angle_gamma                       90.0000035808
_chemical_name_systematic               'Generated by pymatgen'
_symmetry_Int_Tables_number             1
_chemical_formula_structural            K2Zn3O4
_chemical_formula_sum                   'K4 Zn6 O8'
_cell_volume                            275.567812853
_cell_formula_units_Z                   2
loop_
  _symmetry_equiv_pos_site_id
  _symmetry_equiv_pos_as_xyz
   1  'x, y, z'
 
loop_
  _atom_site_type_symbol
  _atom_site_label
  _atom_site_symmetry_multiplicity
  _atom_site_fract_x
  _atom_site_fract_y
  _atom_site_fract_z
  _atom_site_attached_hydrogens
  _atom_site_B_iso_or_equiv
  _atom_site_occupancy
   K  K1  1  0.511224  0.758583  0.762631  0  .  1
   K  K2  1  0.988776  0.995952  0.237369  0  .  1
   K  K3  1  0.488776  0.241417  0.237369  0  .  1
   K  K4  1  0.011224  0.004048  0.762631  0  .  1
   Zn  Zn5  1  0.250000  0.519190  1.000000  0  .  1
   Zn  Zn6  1  0.750000  0.480810  0.000000  0  .  1
   Zn  Zn7  1  0.085083  0.574043  0.382410  0  .  1
   Zn  Zn8  1  0.414917  0.191632  0.617590  0  .  1
   Zn  Zn9  1  0.914917  0.425957  0.617590  0  .  1
   Zn  Zn10  1  0.585083  0.808368  0.382410  0  .  1
   O  O11  1  0.955328  0.619392  0.883406  0  .  1
   O  O12  1  0.544672  0.735986  0.116594  0  .  1
   O  O13  1  0.044672  0.380608  0.116594  0  .  1
   O  O14  1  0.455328  0.264014  0.883406  0  .  1
   O  O15  1  0.285282  0.859212  0.470810  0  .  1
   O  O16  1  0.214718  0.388402  0.529190  0  .  1
   O  O17  1  0.714718  0.140788  0.529190  0  .  1
   O  O18  1  0.785282  0.611598  0.470810  0  .  1
 
