#\#CIF1.1
##########################################################################
#               Crystallographic Information Format file 
#               Produced by PyCifRW module
# 
#  This is a CIF file.  CIF has been adopted by the International
#  Union of Crystallography as the standard for data archiving and 
#  transmission.
#
#  For information on this file format, follow the CIF links at
#  http://www.iucr.org
##########################################################################

data_K3(Cu4Se3)2
_symmetry_space_group_name_H-M          'P 1'
_cell_length_a                          3.98645083
_cell_length_b                          9.22750905315
_cell_length_c                          10.123132517
_cell_angle_alpha                       104.869532994
_cell_angle_beta                        90.0
_cell_angle_gamma                       102.474732428
_chemical_name_systematic               'Generated by pymatgen'
_symmetry_Int_Tables_number             1
_chemical_formula_structural            K3(Cu4Se3)2
_chemical_formula_sum                   'K3 Cu8 Se6'
_cell_volume                            350.805807696
_cell_formula_units_Z                   1
loop_
  _symmetry_equiv_pos_site_id
  _symmetry_equiv_pos_as_xyz
   1  'x, y, z'
 
loop_
  _atom_site_type_symbol
  _atom_site_label
  _atom_site_symmetry_multiplicity
  _atom_site_fract_x
  _atom_site_fract_y
  _atom_site_fract_z
  _atom_site_attached_hydrogens
  _atom_site_B_iso_or_equiv
  _atom_site_occupancy
   K  K1  1  0.309343  0.618687  0.699044  0  .  1
   K  K2  1  0.500000  0.000000  0.000000  0  .  1
   K  K3  1  0.690657  0.381313  0.300956  0  .  1
   Cu  Cu4  1  0.895448  0.790896  0.217316  0  .  1
   Cu  Cu5  1  0.482976  0.965953  0.362654  0  .  1
   Cu  Cu6  1  0.104552  0.209104  0.782684  0  .  1
   Cu  Cu7  1  0.920970  0.841939  0.472275  0  .  1
   Cu  Cu8  1  0.079030  0.158061  0.527725  0  .  1
   Cu  Cu9  1  0.302258  0.604517  0.088724  0  .  1
   Cu  Cu10  1  0.517024  0.034047  0.637346  0  .  1
   Cu  Cu11  1  0.697742  0.395483  0.911276  0  .  1
   Se  Se12  1  0.960838  0.921677  0.715597  0  .  1
   Se  Se13  1  0.343128  0.686256  0.353395  0  .  1
   Se  Se14  1  0.656872  0.313744  0.646605  0  .  1
   Se  Se15  1  0.039162  0.078323  0.284403  0  .  1
   Se  Se16  1  0.158729  0.317458  0.024263  0  .  1
   Se  Se17  1  0.841271  0.682542  0.975737  0  .  1
 
