#\#CIF1.1
##########################################################################
#               Crystallographic Information Format file 
#               Produced by PyCifRW module
# 
#  This is a CIF file.  CIF has been adopted by the International
#  Union of Crystallography as the standard for data archiving and 
#  transmission.
#
#  For information on this file format, follow the CIF links at
#  http://www.iucr.org
##########################################################################

data_K3(FeO2)2
_symmetry_space_group_name_H-M          'P 1'
_cell_length_a                          6.07585093764
_cell_length_b                          6.53552725921
_cell_length_c                          9.1039227191
_cell_angle_alpha                       81.0767155344
_cell_angle_beta                        70.5068524709
_cell_angle_gamma                       62.3006177348
_chemical_name_systematic               'Generated by pymatgen'
_symmetry_Int_Tables_number             1
_chemical_formula_structural            K3(FeO2)2
_chemical_formula_sum                   'K6 Fe4 O8'
_cell_volume                            301.731112495
_cell_formula_units_Z                   2
loop_
  _symmetry_equiv_pos_site_id
  _symmetry_equiv_pos_as_xyz
   1  'x, y, z'
 
loop_
  _atom_site_type_symbol
  _atom_site_label
  _atom_site_symmetry_multiplicity
  _atom_site_fract_x
  _atom_site_fract_y
  _atom_site_fract_z
  _atom_site_attached_hydrogens
  _atom_site_B_iso_or_equiv
  _atom_site_occupancy
   O  O1  1  0.500000  0.000000  0.500000  0  .  1
   O  O2  1  0.943030  0.113941  0.750000  0  .  1
   O  O3  1  0.693030  0.613941  0.250000  0  .  1
   O  O4  1  0.056970  0.886059  0.250000  0  .  1
   O  O5  1  0.306970  0.386059  0.750000  0  .  1
   O  O6  1  0.000000  0.500000  0.500000  0  .  1
   O  O7  1  0.500000  0.500000  0.000000  0  .  1
   O  O8  1  0.500000  0.000000  0.000000  0  .  1
   K  K9  1  0.016178  0.750000  0.967644  0  .  1
   K  K10  1  0.375000  0.250000  0.250000  0  .  1
   K  K11  1  0.983822  0.250000  0.032356  0  .  1
   K  K12  1  0.766178  0.250000  0.467644  0  .  1
   K  K13  1  0.625000  0.750000  0.750000  0  .  1
   K  K14  1  0.233822  0.750000  0.532356  0  .  1
   Fe  Fe15  1  0.566924  0.250000  0.866153  0  .  1
   Fe  Fe16  1  0.816924  0.750000  0.366153  0  .  1
   Fe  Fe17  1  0.433076  0.750000  0.133847  0  .  1
   Fe  Fe18  1  0.183076  0.250000  0.633847  0  .  1
 
