#\#CIF1.1
##########################################################################
#               Crystallographic Information Format file 
#               Produced by PyCifRW module
# 
#  This is a CIF file.  CIF has been adopted by the International
#  Union of Crystallography as the standard for data archiving and 
#  transmission.
#
#  For information on this file format, follow the CIF links at
#  http://www.iucr.org
##########################################################################

data_K3CrO4
_symmetry_space_group_name_H-M          'P 1'
_cell_length_a                          6.1442394896
_cell_length_b                          8.50865583827
_cell_length_c                          6.14424011409
_cell_angle_alpha                       90.0000000968
_cell_angle_beta                        89.9999949231
_cell_angle_gamma                       89.9999945559
_chemical_name_systematic               'Generated by pymatgen'
_symmetry_Int_Tables_number             1
_chemical_formula_structural            K3CrO4
_chemical_formula_sum                   'K6 Cr2 O8'
_cell_volume                            321.216075772
_cell_formula_units_Z                   2
loop_
  _symmetry_equiv_pos_site_id
  _symmetry_equiv_pos_as_xyz
   1  'x, y, z'
 
loop_
  _atom_site_type_symbol
  _atom_site_label
  _atom_site_symmetry_multiplicity
  _atom_site_fract_x
  _atom_site_fract_y
  _atom_site_fract_z
  _atom_site_attached_hydrogens
  _atom_site_B_iso_or_equiv
  _atom_site_occupancy
   K  K1  1  1.000000  0.250026  0.500000  0  .  1
   K  K2  1  0.500000  0.749974  0.000000  0  .  1
   K  K3  1  0.500000  0.250026  0.000000  0  .  1
   K  K4  1  0.000000  0.749974  0.500000  0  .  1
   K  K5  1  0.000000  0.500000  0.000000  0  .  1
   K  K6  1  0.500000  0.000000  0.500000  0  .  1
   Cr  Cr7  1  0.000000  0.000000  0.000000  0  .  1
   Cr  Cr8  1  0.500000  0.500000  0.500000  0  .  1
   O  O9  1  0.331114  0.608446  0.668886  0  .  1
   O  O10  1  0.831127  0.108450  0.168873  0  .  1
   O  O11  1  0.831127  0.891550  0.831127  0  .  1
   O  O12  1  0.331114  0.391554  0.331114  0  .  1
   O  O13  1  0.668886  0.391554  0.668886  0  .  1
   O  O14  1  0.168873  0.891550  0.168873  0  .  1
   O  O15  1  0.168873  0.108450  0.831127  0  .  1
   O  O16  1  0.668886  0.608446  0.331114  0  .  1
 
