#\#CIF1.1
##########################################################################
#               Crystallographic Information Format file 
#               Produced by PyCifRW module
# 
#  This is a CIF file.  CIF has been adopted by the International
#  Union of Crystallography as the standard for data archiving and 
#  transmission.
#
#  For information on this file format, follow the CIF links at
#  http://www.iucr.org
##########################################################################

data_K3CrO8
_symmetry_space_group_name_H-M          'P 1'
_cell_length_a                          6.20976466357
_cell_length_b                          6.20976466706
_cell_length_c                          6.20976466615
_cell_angle_alpha                       101.887923335
_cell_angle_beta                        113.390831915
_cell_angle_gamma                       113.390832027
_chemical_name_systematic               'Generated by pymatgen'
_symmetry_Int_Tables_number             1
_chemical_formula_structural            K3CrO8
_chemical_formula_sum                   'K3 Cr1 O8'
_cell_volume                            181.956597675
_cell_formula_units_Z                   1
loop_
  _symmetry_equiv_pos_site_id
  _symmetry_equiv_pos_as_xyz
   1  'x, y, z'
 
loop_
  _atom_site_type_symbol
  _atom_site_label
  _atom_site_symmetry_multiplicity
  _atom_site_fract_x
  _atom_site_fract_y
  _atom_site_fract_z
  _atom_site_attached_hydrogens
  _atom_site_B_iso_or_equiv
  _atom_site_occupancy
   O  O1  1  0.587372  0.809934  0.809934  0  .  1
   O  O2  1  0.000000  0.190066  0.777438  0  .  1
   O  O3  1  0.000000  0.777438  0.190066  0  .  1
   O  O4  1  0.412628  0.222562  0.222562  0  .  1
   O  O5  1  0.268372  0.313222  0.313222  0  .  1
   O  O6  1  0.000000  0.686778  0.955150  0  .  1
   O  O7  1  0.000000  0.955150  0.686778  0  .  1
   O  O8  1  0.731628  0.044850  0.044850  0  .  1
   K  K9  1  0.500000  0.250000  0.750000  0  .  1
   K  K10  1  0.500000  0.750000  0.250000  0  .  1
   K  K11  1  0.000000  0.500000  0.500000  0  .  1
   Cr  Cr12  1  0.000000  0.000000  0.000000  0  .  1
 
