#\#CIF1.1
##########################################################################
#               Crystallographic Information Format file 
#               Produced by PyCifRW module
# 
#  This is a CIF file.  CIF has been adopted by the International
#  Union of Crystallography as the standard for data archiving and 
#  transmission.
#
#  For information on this file format, follow the CIF links at
#  http://www.iucr.org
##########################################################################

data_K3Cr11S18
_symmetry_space_group_name_H-M          'P 1'
_cell_length_a                          3.52010725826
_cell_length_b                          10.8790306832
_cell_length_c                          16.4717909093
_cell_angle_alpha                       99.8291686251
_cell_angle_beta                        89.9910939191
_cell_angle_gamma                       99.2932992127
_chemical_name_systematic               'Generated by pymatgen'
_symmetry_Int_Tables_number             1
_chemical_formula_structural            K3Cr11S18
_chemical_formula_sum                   'K3 Cr11 S18'
_cell_volume                            613.132088348
_cell_formula_units_Z                   1
loop_
  _symmetry_equiv_pos_site_id
  _symmetry_equiv_pos_as_xyz
   1  'x, y, z'
 
loop_
  _atom_site_type_symbol
  _atom_site_label
  _atom_site_symmetry_multiplicity
  _atom_site_fract_x
  _atom_site_fract_y
  _atom_site_fract_z
  _atom_site_attached_hydrogens
  _atom_site_B_iso_or_equiv
  _atom_site_occupancy
   K  K1  1  0.806065  0.609338  0.911338  0  .  1
   K  K2  1  0.202398  0.390489  0.089777  0  .  1
   K  K3  1  0.510664  0.002757  0.500337  0  .  1
   Cr  Cr4  1  0.843873  0.694658  0.278343  0  .  1
   Cr  Cr5  1  0.150125  0.305207  0.722304  0  .  1
   Cr  Cr6  1  0.295752  0.586411  0.429745  0  .  1
   Cr  Cr7  1  0.586938  0.180008  0.867797  0  .  1
   Cr  Cr8  1  0.468119  0.937892  0.743208  0  .  1
   Cr  Cr9  1  0.534293  0.061055  0.255038  0  .  1
   Cr  Cr10  1  0.710072  0.413211  0.570757  0  .  1
   Cr  Cr11  1  0.408116  0.818642  0.131743  0  .  1
   Cr  Cr12  1  0.832685  0.667666  0.679568  0  .  1
   Cr  Cr13  1  0.166219  0.331634  0.319939  0  .  1
   Cr  Cr14  1  0.998520  0.999350  0.999356  0  .  1
   S  S15  1  0.635203  0.268620  0.226797  0  .  1
   S  S16  1  0.421154  0.843840  0.991623  0  .  1
   S  S17  1  0.832510  0.667467  0.126152  0  .  1
   S  S18  1  0.725805  0.456421  0.718580  0  .  1
   S  S19  1  0.293355  0.586110  0.575968  0  .  1
   S  S20  1  0.574269  0.153791  0.718815  0  .  1
   S  S21  1  0.364308  0.731171  0.772578  0  .  1
   S  S22  1  0.936834  0.874749  0.648014  0  .  1
   S  S23  1  0.162646  0.331375  0.874099  0  .  1
   S  S24  1  0.138128  0.269715  0.573969  0  .  1
   S  S25  1  0.066026  0.124068  0.350272  0  .  1
   S  S26  1  0.420026  0.845675  0.280845  0  .  1
   S  S27  1  0.867237  0.729996  0.426673  0  .  1
   S  S28  1  0.575489  0.154673  0.007581  0  .  1
   S  S29  1  0.998025  0.990700  0.147642  0  .  1
   S  S30  1  0.268975  0.543464  0.282081  0  .  1
   S  S31  1  0.003144  0.008114  0.851027  0  .  1
   S  S32  1  0.707728  0.412930  0.424175  0  .  1
 
