#\#CIF1.1
##########################################################################
#               Crystallographic Information Format file 
#               Produced by PyCifRW module
# 
#  This is a CIF file.  CIF has been adopted by the International
#  Union of Crystallography as the standard for data archiving and 
#  transmission.
#
#  For information on this file format, follow the CIF links at
#  http://www.iucr.org
##########################################################################

data_K3CuO2
_symmetry_space_group_name_H-M          'P 1'
_cell_length_a                          8.67369143
_cell_length_b                          8.67369143
_cell_length_c                          13.4969001
_cell_angle_alpha                       90.0
_cell_angle_beta                        90.0
_cell_angle_gamma                       90.0
_chemical_name_systematic               'Generated by pymatgen'
_symmetry_Int_Tables_number             1
_chemical_formula_structural            K3CuO2
_chemical_formula_sum                   'K24 Cu8 O16'
_cell_volume                            1015.41124627
_cell_formula_units_Z                   8
loop_
  _symmetry_equiv_pos_site_id
  _symmetry_equiv_pos_as_xyz
   1  'x, y, z'
 
loop_
  _atom_site_type_symbol
  _atom_site_label
  _atom_site_symmetry_multiplicity
  _atom_site_fract_x
  _atom_site_fract_y
  _atom_site_fract_z
  _atom_site_attached_hydrogens
  _atom_site_B_iso_or_equiv
  _atom_site_occupancy
   O  O1  1  0.763001  0.025817  0.416823  0  .  1
   O  O2  1  0.236999  0.974183  0.916823  0  .  1
   O  O3  1  0.025817  0.763001  0.583177  0  .  1
   O  O4  1  0.525817  0.736999  0.166823  0  .  1
   O  O5  1  0.474183  0.263001  0.666823  0  .  1
   O  O6  1  0.736999  0.525817  0.833177  0  .  1
   O  O7  1  0.263001  0.474183  0.333177  0  .  1
   O  O8  1  0.974183  0.236999  0.083177  0  .  1
   O  O9  1  0.767329  0.445058  0.420211  0  .  1
   O  O10  1  0.267329  0.054942  0.329789  0  .  1
   O  O11  1  0.732671  0.945058  0.829789  0  .  1
   O  O12  1  0.054942  0.267329  0.670211  0  .  1
   O  O13  1  0.945058  0.732671  0.170211  0  .  1
   O  O14  1  0.232671  0.554942  0.920211  0  .  1
   O  O15  1  0.445058  0.767329  0.579789  0  .  1
   O  O16  1  0.554942  0.232671  0.079789  0  .  1
   K  K17  1  0.063933  0.465181  0.498662  0  .  1
   K  K18  1  0.764959  0.345976  0.642678  0  .  1
   K  K19  1  0.235041  0.654024  0.142678  0  .  1
   K  K20  1  0.845976  0.735041  0.392678  0  .  1
   K  K21  1  0.654024  0.235041  0.857322  0  .  1
   K  K22  1  0.154024  0.264959  0.892678  0  .  1
   K  K23  1  0.735041  0.845976  0.607322  0  .  1
   K  K24  1  0.264959  0.154024  0.107322  0  .  1
   K  K25  1  0.943675  0.943675  0.000000  0  .  1
   K  K26  1  0.556325  0.443675  0.250000  0  .  1
   K  K27  1  0.443675  0.556325  0.750000  0  .  1
   K  K28  1  0.056325  0.056325  0.500000  0  .  1
   K  K29  1  0.524362  0.524362  0.000000  0  .  1
   K  K30  1  0.975638  0.024362  0.250000  0  .  1
   K  K31  1  0.024362  0.975638  0.750000  0  .  1
   K  K32  1  0.475638  0.475638  0.500000  0  .  1
   K  K33  1  0.465181  0.063933  0.501338  0  .  1
   K  K34  1  0.965181  0.436067  0.248662  0  .  1
   K  K35  1  0.034819  0.563933  0.748662  0  .  1
   K  K36  1  0.436067  0.965181  0.751338  0  .  1
   K  K37  1  0.563933  0.034819  0.251338  0  .  1
   K  K38  1  0.534819  0.936067  0.001338  0  .  1
   K  K39  1  0.345976  0.764959  0.357322  0  .  1
   K  K40  1  0.936067  0.534819  0.998662  0  .  1
   Cu  Cu41  1  0.735719  0.736041  0.165742  0  .  1
   Cu  Cu42  1  0.264281  0.263959  0.665742  0  .  1
   Cu  Cu43  1  0.736041  0.735719  0.834258  0  .  1
   Cu  Cu44  1  0.236041  0.764281  0.915742  0  .  1
   Cu  Cu45  1  0.763959  0.235719  0.415742  0  .  1
   Cu  Cu46  1  0.764281  0.236041  0.084258  0  .  1
   Cu  Cu47  1  0.235719  0.763959  0.584258  0  .  1
   Cu  Cu48  1  0.263959  0.264281  0.334258  0  .  1
 
