#\#CIF1.1
##########################################################################
#               Crystallographic Information Format file 
#               Produced by PyCifRW module
# 
#  This is a CIF file.  CIF has been adopted by the International
#  Union of Crystallography as the standard for data archiving and 
#  transmission.
#
#  For information on this file format, follow the CIF links at
#  http://www.iucr.org
##########################################################################

data_K3FeO2
_symmetry_space_group_name_H-M          'P 1'
_cell_length_a                          6.19052063
_cell_length_b                          6.19052063
_cell_length_c                          14.63524857
_cell_angle_alpha                       90.0
_cell_angle_beta                        90.0
_cell_angle_gamma                       90.0
_chemical_name_systematic               'Generated by pymatgen'
_symmetry_Int_Tables_number             1
_chemical_formula_structural            K3FeO2
_chemical_formula_sum                   'K12 Fe4 O8'
_cell_volume                            560.859981722
_cell_formula_units_Z                   4
loop_
  _symmetry_equiv_pos_site_id
  _symmetry_equiv_pos_as_xyz
   1  'x, y, z'
 
loop_
  _atom_site_type_symbol
  _atom_site_label
  _atom_site_symmetry_multiplicity
  _atom_site_fract_x
  _atom_site_fract_y
  _atom_site_fract_z
  _atom_site_attached_hydrogens
  _atom_site_B_iso_or_equiv
  _atom_site_occupancy
   O  O1  1  0.786921  0.797123  0.257002  0  .  1
   O  O2  1  0.213080  0.202876  0.757002  0  .  1
   O  O3  1  0.797123  0.786921  0.742998  0  .  1
   O  O4  1  0.297123  0.713079  0.007002  0  .  1
   O  O5  1  0.286920  0.702877  0.492998  0  .  1
   O  O6  1  0.202876  0.213080  0.242998  0  .  1
   O  O7  1  0.702877  0.286920  0.507002  0  .  1
   O  O8  1  0.713079  0.297123  0.992998  0  .  1
   K  K9  1  0.511403  0.015616  0.125176  0  .  1
   K  K10  1  0.968480  0.968480  0.500000  0  .  1
   K  K11  1  0.515616  0.988597  0.875176  0  .  1
   K  K12  1  0.011404  0.484383  0.624824  0  .  1
   K  K13  1  0.531520  0.468479  0.750000  0  .  1
   K  K14  1  0.488597  0.984384  0.625176  0  .  1
   K  K15  1  0.015616  0.511403  0.874824  0  .  1
   K  K16  1  0.984384  0.488597  0.374824  0  .  1
   K  K17  1  0.468479  0.531520  0.250000  0  .  1
   K  K18  1  0.031521  0.031521  0.000000  0  .  1
   K  K19  1  0.484383  0.011404  0.375176  0  .  1
   K  K20  1  0.988597  0.515616  0.124824  0  .  1
   Fe  Fe21  1  0.495866  0.495866  0.500000  0  .  1
   Fe  Fe22  1  0.004134  0.995867  0.750000  0  .  1
   Fe  Fe23  1  0.995867  0.004134  0.250000  0  .  1
   Fe  Fe24  1  0.504135  0.504135  0.000000  0  .  1
 
