#\#CIF1.1
##########################################################################
#               Crystallographic Information Format file 
#               Produced by PyCifRW module
# 
#  This is a CIF file.  CIF has been adopted by the International
#  Union of Crystallography as the standard for data archiving and 
#  transmission.
#
#  For information on this file format, follow the CIF links at
#  http://www.iucr.org
##########################################################################

data_K3FeO3
_symmetry_space_group_name_H-M          'P 1'
_cell_length_a                          6.58177832616
_cell_length_b                          6.70860379252
_cell_length_c                          6.70860341165
_cell_angle_alpha                       114.656488557
_cell_angle_beta                        96.1164458758
_cell_angle_gamma                       96.1164434839
_chemical_name_systematic               'Generated by pymatgen'
_symmetry_Int_Tables_number             1
_chemical_formula_structural            K3FeO3
_chemical_formula_sum                   'K6 Fe2 O6'
_cell_volume                            263.911976833
_cell_formula_units_Z                   2
loop_
  _symmetry_equiv_pos_site_id
  _symmetry_equiv_pos_as_xyz
   1  'x, y, z'
 
loop_
  _atom_site_type_symbol
  _atom_site_label
  _atom_site_symmetry_multiplicity
  _atom_site_fract_x
  _atom_site_fract_y
  _atom_site_fract_z
  _atom_site_attached_hydrogens
  _atom_site_B_iso_or_equiv
  _atom_site_occupancy
   O  O1  1  0.734548  0.841362  0.567759  0  .  1
   O  O2  1  0.162053  0.902575  0.902575  0  .  1
   O  O3  1  0.837947  0.097422  0.097423  0  .  1
   O  O4  1  0.265454  0.158638  0.432240  0  .  1
   O  O5  1  0.265453  0.432240  0.158639  0  .  1
   O  O6  1  0.734548  0.567759  0.841363  0  .  1
   K  K7  1  0.350330  0.625271  0.625271  0  .  1
   K  K8  1  0.500000  0.189634  0.810362  0  .  1
   K  K9  1  0.500001  0.810364  0.189633  0  .  1
   K  K10  1  -0.000001  0.256146  0.743854  0  .  1
   K  K11  1  0.649670  0.374733  0.374733  0  .  1
   K  K12  1  -0.000001  0.743854  0.256145  0  .  1
   Fe  Fe13  1  0.854402  0.827853  0.827854  0  .  1
   Fe  Fe14  1  0.145599  0.172148  0.172148  0  .  1
 
