#\#CIF1.1
##########################################################################
#               Crystallographic Information Format file 
#               Produced by PyCifRW module
# 
#  This is a CIF file.  CIF has been adopted by the International
#  Union of Crystallography as the standard for data archiving and 
#  transmission.
#
#  For information on this file format, follow the CIF links at
#  http://www.iucr.org
##########################################################################

data_K3Mn2O8
_symmetry_space_group_name_H-M          'P 1'
_cell_length_a                          5.88343478
_cell_length_b                          7.96596426603
_cell_length_c                          9.94439460642
_cell_angle_alpha                       111.53040213
_cell_angle_beta                        90.0
_cell_angle_gamma                       90.0
_chemical_name_systematic               'Generated by pymatgen'
_symmetry_Int_Tables_number             1
_chemical_formula_structural            K3Mn2O8
_chemical_formula_sum                   'K6 Mn4 O16'
_cell_volume                            433.545520978
_cell_formula_units_Z                   2
loop_
  _symmetry_equiv_pos_site_id
  _symmetry_equiv_pos_as_xyz
   1  'x, y, z'
 
loop_
  _atom_site_type_symbol
  _atom_site_label
  _atom_site_symmetry_multiplicity
  _atom_site_fract_x
  _atom_site_fract_y
  _atom_site_fract_z
  _atom_site_attached_hydrogens
  _atom_site_B_iso_or_equiv
  _atom_site_occupancy
   O  O1  1  0.750000  0.731113  0.031048  0  .  1
   O  O2  1  0.022443  0.040512  0.740584  0  .  1
   O  O3  1  0.250000  0.586834  0.582628  0  .  1
   O  O4  1  0.750000  0.413166  0.417371  0  .  1
   O  O5  1  0.250000  0.233473  0.530716  0  .  1
   O  O6  1  0.750000  0.766527  0.469283  0  .  1
   O  O7  1  0.477456  0.460403  0.759663  0  .  1
   O  O8  1  0.977456  0.539597  0.240337  0  .  1
   O  O9  1  0.522543  0.539597  0.240337  0  .  1
   O  O10  1  0.022544  0.460403  0.759663  0  .  1
   O  O11  1  0.522443  0.959487  0.259415  0  .  1
   O  O12  1  0.977557  0.959487  0.259415  0  .  1
   O  O13  1  0.250000  0.268887  0.968953  0  .  1
   O  O14  1  0.477557  0.040512  0.740584  0  .  1
   O  O15  1  0.250000  0.916260  0.919215  0  .  1
   O  O16  1  0.750000  0.083739  0.080784  0  .  1
   K  K17  1  0.250000  0.658872  0.045631  0  .  1
   K  K18  1  0.750000  0.341129  0.954369  0  .  1
   K  K19  1  0.250000  0.841264  0.454572  0  .  1
   K  K20  1  0.750000  0.751155  0.751038  0  .  1
   K  K21  1  0.750000  0.158736  0.545428  0  .  1
   K  K22  1  0.250000  0.248844  0.248963  0  .  1
   Mn  Mn23  1  0.750000  0.934417  0.157630  0  .  1
   Mn  Mn24  1  0.250000  0.065583  0.842371  0  .  1
   Mn  Mn25  1  0.750000  0.564014  0.341970  0  .  1
   Mn  Mn26  1  0.250000  0.435985  0.658030  0  .  1
 
