#\#CIF1.1
##########################################################################
#               Crystallographic Information Format file 
#               Produced by PyCifRW module
# 
#  This is a CIF file.  CIF has been adopted by the International
#  Union of Crystallography as the standard for data archiving and 
#  transmission.
#
#  For information on this file format, follow the CIF links at
#  http://www.iucr.org
##########################################################################

data_K3NiO2
_symmetry_space_group_name_H-M          'P 1'
_cell_length_a                          6.10241176
_cell_length_b                          6.10241176
_cell_length_c                          14.06997603
_cell_angle_alpha                       90.0
_cell_angle_beta                        90.0
_cell_angle_gamma                       90.0
_chemical_name_systematic               'Generated by pymatgen'
_symmetry_Int_Tables_number             1
_chemical_formula_structural            K3NiO2
_chemical_formula_sum                   'K12 Ni4 O8'
_cell_volume                            523.957877461
_cell_formula_units_Z                   4
loop_
  _symmetry_equiv_pos_site_id
  _symmetry_equiv_pos_as_xyz
   1  'x, y, z'
 
loop_
  _atom_site_type_symbol
  _atom_site_label
  _atom_site_symmetry_multiplicity
  _atom_site_fract_x
  _atom_site_fract_y
  _atom_site_fract_z
  _atom_site_attached_hydrogens
  _atom_site_B_iso_or_equiv
  _atom_site_occupancy
   Ni  Ni1  1  0.995767  0.995767  0.000000  0  .  1
   Ni  Ni2  1  0.504233  0.495767  0.250000  0  .  1
   Ni  Ni3  1  0.495767  0.504233  0.750000  0  .  1
   Ni  Ni4  1  0.004233  0.004233  0.500000  0  .  1
   K  K5  1  0.448670  0.448670  0.000000  0  .  1
   K  K6  1  0.051330  0.948670  0.250000  0  .  1
   K  K7  1  0.948670  0.051330  0.750000  0  .  1
   K  K8  1  0.551330  0.551330  0.500000  0  .  1
   K  K9  1  0.977621  0.520801  0.876233  0  .  1
   K  K10  1  0.979199  0.477621  0.126233  0  .  1
   K  K11  1  0.020801  0.522379  0.626233  0  .  1
   K  K12  1  0.477621  0.979199  0.873767  0  .  1
   K  K13  1  0.522379  0.020801  0.373767  0  .  1
   K  K14  1  0.022379  0.479199  0.376233  0  .  1
   K  K15  1  0.520801  0.977621  0.123767  0  .  1
   K  K16  1  0.479199  0.022379  0.623767  0  .  1
   O  O17  1  0.786539  0.201264  0.989373  0  .  1
   O  O18  1  0.298736  0.286539  0.239373  0  .  1
   O  O19  1  0.701264  0.713461  0.739373  0  .  1
   O  O20  1  0.286539  0.298736  0.760627  0  .  1
   O  O21  1  0.713461  0.701264  0.260627  0  .  1
   O  O22  1  0.213461  0.798736  0.489373  0  .  1
   O  O23  1  0.201264  0.786539  0.010627  0  .  1
   O  O24  1  0.798736  0.213461  0.510627  0  .  1
 
