#\#CIF1.1
##########################################################################
#               Crystallographic Information Format file 
#               Produced by PyCifRW module
# 
#  This is a CIF file.  CIF has been adopted by the International
#  Union of Crystallography as the standard for data archiving and 
#  transmission.
#
#  For information on this file format, follow the CIF links at
#  http://www.iucr.org
##########################################################################

data_K3Ti8O17
_symmetry_space_group_name_H-M          'P 1'
_cell_length_a                          8.15197692983
_cell_length_b                          7.64912795576
_cell_length_c                          12.2202659392
_cell_angle_alpha                       89.989005399
_cell_angle_beta                        95.1586507962
_cell_angle_gamma                       76.3925499017
_chemical_name_systematic               'Generated by pymatgen'
_symmetry_Int_Tables_number             1
_chemical_formula_structural            K3Ti8O17
_chemical_formula_sum                   'K6 Ti16 O34'
_cell_volume                            737.432746418
_cell_formula_units_Z                   2
loop_
  _symmetry_equiv_pos_site_id
  _symmetry_equiv_pos_as_xyz
   1  'x, y, z'
 
loop_
  _atom_site_type_symbol
  _atom_site_label
  _atom_site_symmetry_multiplicity
  _atom_site_fract_x
  _atom_site_fract_y
  _atom_site_fract_z
  _atom_site_attached_hydrogens
  _atom_site_B_iso_or_equiv
  _atom_site_occupancy
   K  K1  1  0.020201  0.744853  0.539595  0  .  1
   K  K2  1  0.112980  0.221908  0.824300  0  .  1
   K  K3  1  0.115373  0.721097  0.832786  0  .  1
   K  K4  1  0.884627  0.278903  0.167214  0  .  1
   K  K5  1  0.887020  0.778092  0.175700  0  .  1
   K  K6  1  0.979799  0.255147  0.460405  0  .  1
   Ti  Ti7  1  0.223466  0.443567  0.070091  0  .  1
   Ti  Ti8  1  0.223580  0.944565  0.069857  0  .  1
   Ti  Ti9  1  0.302748  0.923467  0.324694  0  .  1
   Ti  Ti10  1  0.303448  0.424726  0.324492  0  .  1
   Ti  Ti11  1  0.394472  0.902707  0.577756  0  .  1
   Ti  Ti12  1  0.394615  0.399903  0.577451  0  .  1
   Ti  Ti13  1  0.484717  0.378863  0.830156  0  .  1
   Ti  Ti14  1  0.484987  0.878669  0.830248  0  .  1
   Ti  Ti15  1  0.515283  0.621137  0.169844  0  .  1
   Ti  Ti16  1  0.515013  0.121331  0.169752  0  .  1
   Ti  Ti17  1  0.605528  0.097293  0.422244  0  .  1
   Ti  Ti18  1  0.605385  0.600097  0.422549  0  .  1
   Ti  Ti19  1  0.696552  0.575274  0.675508  0  .  1
   Ti  Ti20  1  0.697252  0.076533  0.675306  0  .  1
   Ti  Ti21  1  0.776420  0.055435  0.930143  0  .  1
   Ti  Ti22  1  0.776534  0.556433  0.929909  0  .  1
   O  O23  1  0.000000  0.000000  0.000000  0  .  1
   O  O24  1  0.000000  0.500000  0.000000  0  .  1
   O  O25  1  0.126020  0.466307  0.224943  0  .  1
   O  O26  1  0.125619  0.971071  0.224815  0  .  1
   O  O27  1  0.215261  0.445748  0.463332  0  .  1
   O  O28  1  0.214593  0.946675  0.463416  0  .  1
   O  O29  1  0.299774  0.428204  0.706288  0  .  1
   O  O30  1  0.299404  0.921916  0.706345  0  .  1
   O  O31  1  0.344025  0.414221  0.935367  0  .  1
   O  O32  1  0.344034  0.914379  0.935440  0  .  1
   O  O33  1  0.273214  0.681418  0.088309  0  .  1
   O  O34  1  0.274007  0.181160  0.087973  0  .  1
   O  O35  1  0.369817  0.157504  0.325197  0  .  1
   O  O36  1  0.369695  0.657654  0.324799  0  .  1
   O  O37  1  0.450232  0.137567  0.567289  0  .  1
   O  O38  1  0.448997  0.637891  0.566526  0  .  1
   O  O39  1  0.540791  0.114827  0.814390  0  .  1
   O  O40  1  0.541557  0.614224  0.814896  0  .  1
   O  O41  1  0.458443  0.385776  0.185104  0  .  1
   O  O42  1  0.459209  0.885173  0.185610  0  .  1
   O  O43  1  0.551003  0.362109  0.433474  0  .  1
   O  O44  1  0.549768  0.862433  0.432711  0  .  1
   O  O45  1  0.630305  0.342346  0.675201  0  .  1
   O  O46  1  0.630183  0.842496  0.674804  0  .  1
   O  O47  1  0.726786  0.318582  0.911691  0  .  1
   O  O48  1  0.725993  0.818840  0.912027  0  .  1
   O  O49  1  0.655966  0.085621  0.064560  0  .  1
   O  O50  1  0.655975  0.585779  0.064633  0  .  1
   O  O51  1  0.700596  0.078084  0.293655  0  .  1
   O  O52  1  0.700226  0.571796  0.293712  0  .  1
   O  O53  1  0.785407  0.053325  0.536584  0  .  1
   O  O54  1  0.784739  0.554252  0.536668  0  .  1
   O  O55  1  0.873980  0.533693  0.775057  0  .  1
   O  O56  1  0.874381  0.028929  0.775185  0  .  1
 
