#\#CIF1.1
##########################################################################
#               Crystallographic Information Format file 
#               Produced by PyCifRW module
# 
#  This is a CIF file.  CIF has been adopted by the International
#  Union of Crystallography as the standard for data archiving and 
#  transmission.
#
#  For information on this file format, follow the CIF links at
#  http://www.iucr.org
##########################################################################

data_K3V14O28
_symmetry_space_group_name_H-M          'P 1'
_cell_length_a                          10.25636361
_cell_length_b                          12.5159336939
_cell_length_c                          10.25636361
_cell_angle_alpha                       65.8119855464
_cell_angle_beta                        90.0
_cell_angle_gamma                       65.8119805782
_chemical_name_systematic               'Generated by pymatgen'
_symmetry_Int_Tables_number             1
_chemical_formula_structural            K3V14O28
_chemical_formula_sum                   'K6 V28 O56'
_cell_volume                            1073.03093071
_cell_formula_units_Z                   2
loop_
  _symmetry_equiv_pos_site_id
  _symmetry_equiv_pos_as_xyz
   1  'x, y, z'
 
loop_
  _atom_site_type_symbol
  _atom_site_label
  _atom_site_symmetry_multiplicity
  _atom_site_fract_x
  _atom_site_fract_y
  _atom_site_fract_z
  _atom_site_attached_hydrogens
  _atom_site_B_iso_or_equiv
  _atom_site_occupancy
   K  K1  1  0.198069  0.603861  0.198069  0  .  1
   K  K2  1  0.504563  0.990872  0.504563  0  .  1
   K  K3  1  0.031543  0.936913  0.031543  0  .  1
   K  K4  1  0.352579  0.294842  0.352579  0  .  1
   K  K5  1  0.659073  0.681853  0.659073  0  .  1
   K  K6  1  0.825600  0.348801  0.825600  0  .  1
   V  V7  1  0.076302  0.142857  0.597418  0  .  1
   V  V8  1  0.024750  0.287478  0.209324  0  .  1
   V  V9  1  0.169371  0.998236  0.353945  0  .  1
   V  V10  1  0.259725  0.142857  0.076302  0  .  1
   V  V11  1  0.115228  0.432260  0.933338  0  .  1
   V  V12  1  0.066529  0.569603  0.548203  0  .  1
   V  V13  1  0.209324  0.287478  0.687772  0  .  1
   V  V14  1  0.353945  0.998236  0.832393  0  .  1
   V  V15  1  0.222741  0.853454  0.741914  0  .  1
   V  V16  1  0.647819  0.998236  0.169371  0  .  1
   V  V17  1  0.363867  0.569603  0.882194  0  .  1
   V  V18  1  0.503198  0.287478  0.024750  0  .  1
   V  V19  1  0.452511  0.432260  0.634402  0  .  1
   V  V20  1  0.308939  0.716111  0.493276  0  .  1
   V  V21  1  0.597418  0.142857  0.780841  0  .  1
   V  V22  1  0.404632  0.853454  0.222741  0  .  1
   V  V23  1  0.832393  0.998236  0.647819  0  .  1
   V  V24  1  0.687772  0.287478  0.503198  0  .  1
   V  V25  1  0.548203  0.569603  0.363867  0  .  1
   V  V26  1  0.634402  0.432260  0.115228  0  .  1
   V  V27  1  0.493276  0.716111  0.974949  0  .  1
   V  V28  1  0.780841  0.142857  0.259725  0  .  1
   V  V29  1  0.790614  0.716111  0.308939  0  .  1
   V  V30  1  0.933338  0.432260  0.452511  0  .  1
   V  V31  1  0.882194  0.569603  0.066529  0  .  1
   V  V32  1  0.741914  0.853454  0.923805  0  .  1
   V  V33  1  0.974949  0.716111  0.790614  0  .  1
   V  V34  1  0.923805  0.853454  0.404632  0  .  1
   O  O35  1  0.015581  0.284625  0.652614  0  .  1
   O  O36  1  0.157349  0.001089  0.794382  0  .  1
   O  O37  1  0.023309  0.284646  0.398619  0  .  1
   O  O38  1  0.165098  0.001068  0.540408  0  .  1
   O  O39  1  0.062760  0.284625  0.015581  0  .  1
   O  O40  1  0.204529  0.001089  0.157349  0  .  1
   O  O41  1  0.225760  0.142857  0.274093  0  .  1
   O  O42  1  0.087625  0.427183  0.132218  0  .  1
   O  O43  1  0.265498  0.142857  0.888519  0  .  1
   O  O44  1  0.122856  0.425137  0.748923  0  .  1
   O  O45  1  0.274093  0.142857  0.631383  0  .  1
   O  O46  1  0.132218  0.427183  0.485193  0  .  1
   O  O47  1  0.176168  0.567624  0.881293  0  .  1
   O  O48  1  0.031204  0.860577  0.734287  0  .  1
   O  O49  1  0.458524  0.001068  0.165098  0  .  1
   O  O50  1  0.316735  0.284646  0.023309  0  .  1
   O  O51  1  0.108219  0.860577  0.405136  0  .  1
   O  O52  1  0.256208  0.567624  0.551083  0  .  1
   O  O53  1  0.540408  0.001068  0.833834  0  .  1
   O  O54  1  0.398619  0.284646  0.692045  0  .  1
   O  O55  1  0.440598  0.427183  0.087625  0  .  1
   O  O56  1  0.295495  0.719286  0.939900  0  .  1
   O  O57  1  0.583049  0.142857  0.225760  0  .  1
   O  O58  1  0.452006  0.425137  0.825939  0  .  1
   O  O59  1  0.306059  0.718090  0.680975  0  .  1
   O  O60  1  0.591645  0.142857  0.968623  0  .  1
   O  O61  1  0.485193  0.427183  0.440598  0  .  1
   O  O62  1  0.340813  0.719286  0.295495  0  .  1
   O  O63  1  0.631383  0.142857  0.583049  0  .  1
   O  O64  1  0.371950  0.858531  0.416545  0  .  1
   O  O65  1  0.794382  0.001089  0.841562  0  .  1
   O  O66  1  0.516330  0.566428  0.561648  0  .  1
   O  O67  1  0.652614  0.284625  0.699794  0  .  1
   O  O68  1  0.405136  0.860577  0.031204  0  .  1
   O  O69  1  0.833834  0.001068  0.458524  0  .  1
   O  O70  1  0.692045  0.284646  0.316735  0  .  1
   O  O71  1  0.551083  0.567624  0.176168  0  .  1
   O  O72  1  0.416545  0.858531  0.769518  0  .  1
   O  O73  1  0.841562  0.001089  0.204529  0  .  1
   O  O74  1  0.699794  0.284625  0.062760  0  .  1
   O  O75  1  0.561648  0.566428  0.917242  0  .  1
   O  O76  1  0.600934  0.718090  0.306059  0  .  1
   O  O77  1  0.888519  0.142857  0.591645  0  .  1
   O  O78  1  0.748923  0.425137  0.452006  0  .  1
   O  O79  1  0.680975  0.718090  0.975850  0  .  1
   O  O80  1  0.968623  0.142857  0.265498  0  .  1
   O  O81  1  0.825939  0.425137  0.122856  0  .  1
   O  O82  1  0.724924  0.858531  0.371950  0  .  1
   O  O83  1  0.871923  0.566428  0.516330  0  .  1
   O  O84  1  0.881293  0.567624  0.256208  0  .  1
   O  O85  1  0.734287  0.860577  0.108219  0  .  1
   O  O86  1  0.769518  0.858531  0.724924  0  .  1
   O  O87  1  0.917242  0.566428  0.871923  0  .  1
   O  O88  1  0.939900  0.719286  0.985220  0  .  1
   O  O89  1  0.975850  0.718090  0.600934  0  .  1
   O  O90  1  0.985220  0.719286  0.340813  0  .  1
 
