#\#CIF1.1
##########################################################################
#               Crystallographic Information Format file 
#               Produced by PyCifRW module
# 
#  This is a CIF file.  CIF has been adopted by the International
#  Union of Crystallography as the standard for data archiving and 
#  transmission.
#
#  For information on this file format, follow the CIF links at
#  http://www.iucr.org
##########################################################################

data_K3V3O8
_symmetry_space_group_name_H-M          'P 1'
_cell_length_a                          5.75550801
_cell_length_b                          5.75550800893
_cell_length_c                          7.56128312
_cell_angle_alpha                       90.0
_cell_angle_beta                        90.0
_cell_angle_gamma                       119.999999949
_chemical_name_systematic               'Generated by pymatgen'
_symmetry_Int_Tables_number             1
_chemical_formula_structural            K3V3O8
_chemical_formula_sum                   'K3 V3 O8'
_cell_volume                            216.916933849
_cell_formula_units_Z                   1
loop_
  _symmetry_equiv_pos_site_id
  _symmetry_equiv_pos_as_xyz
   1  'x, y, z'
 
loop_
  _atom_site_type_symbol
  _atom_site_label
  _atom_site_symmetry_multiplicity
  _atom_site_fract_x
  _atom_site_fract_y
  _atom_site_fract_z
  _atom_site_attached_hydrogens
  _atom_site_B_iso_or_equiv
  _atom_site_occupancy
   O  O1  1  0.833395  0.166605  0.340267  0  .  1
   O  O2  1  0.833395  0.666790  0.340267  0  .  1
   O  O3  1  0.333210  0.166605  0.340267  0  .  1
   O  O4  1  0.666790  0.833395  0.659733  0  .  1
   O  O5  1  0.166605  0.333210  0.659733  0  .  1
   O  O6  1  0.166605  0.833395  0.659733  0  .  1
   O  O7  1  0.333333  0.666667  0.961967  0  .  1
   O  O8  1  0.666667  0.333333  0.038033  0  .  1
   K  K9  1  0.000000  0.000000  0.000000  0  .  1
   K  K10  1  0.333333  0.666667  0.308606  0  .  1
   K  K11  1  0.666667  0.333333  0.691394  0  .  1
   V  V12  1  0.000000  0.000000  0.500000  0  .  1
   V  V13  1  0.333333  0.666667  0.739506  0  .  1
   V  V14  1  0.666667  0.333333  0.260494  0  .  1
 
