#\#CIF1.1
##########################################################################
#               Crystallographic Information Format file 
#               Produced by PyCifRW module
# 
#  This is a CIF file.  CIF has been adopted by the International
#  Union of Crystallography as the standard for data archiving and 
#  transmission.
#
#  For information on this file format, follow the CIF links at
#  http://www.iucr.org
##########################################################################

data_K3V5O14
_symmetry_space_group_name_H-M          'P 1'
_cell_length_a                          8.79881293
_cell_length_b                          8.7988127242
_cell_length_c                          5.30495806
_cell_angle_alpha                       90.0
_cell_angle_beta                        90.0
_cell_angle_gamma                       120.000000811
_chemical_name_systematic               'Generated by pymatgen'
_symmetry_Int_Tables_number             1
_chemical_formula_structural            K3V5O14
_chemical_formula_sum                   'K3 V5 O14'
_cell_volume                            355.681061497
_cell_formula_units_Z                   1
loop_
  _symmetry_equiv_pos_site_id
  _symmetry_equiv_pos_as_xyz
   1  'x, y, z'
 
loop_
  _atom_site_type_symbol
  _atom_site_label
  _atom_site_symmetry_multiplicity
  _atom_site_fract_x
  _atom_site_fract_y
  _atom_site_fract_z
  _atom_site_attached_hydrogens
  _atom_site_B_iso_or_equiv
  _atom_site_occupancy
   K  K1  1  0.607449  0.000000  0.004318  0  .  1
   K  K2  1  1.000000  0.607449  0.004318  0  .  1
   K  K3  1  0.392551  0.392551  0.004318  0  .  1
   V  V4  1  0.333333  0.666667  0.472095  0  .  1
   V  V5  1  0.666667  0.333333  0.472095  0  .  1
   V  V6  1  0.226656  0.000000  0.471042  0  .  1
   V  V7  1  1.000000  0.226656  0.471042  0  .  1
   V  V8  1  0.773344  0.773344  0.471042  0  .  1
   O  O9  1  0.333333  0.666667  0.786059  0  .  1
   O  O10  1  0.666667  0.333333  0.786059  0  .  1
   O  O11  1  0.238834  0.000000  0.778764  0  .  1
   O  O12  1  1.000000  0.238834  0.778764  0  .  1
   O  O13  1  0.761166  0.761166  0.778764  0  .  1
   O  O14  1  0.830957  0.000000  0.393358  0  .  1
   O  O15  1  0.000000  0.830957  0.393358  0  .  1
   O  O16  1  0.169043  0.169043  0.393358  0  .  1
   O  O17  1  0.461549  0.168356  0.355709  0  .  1
   O  O18  1  0.831644  0.293193  0.355709  0  .  1
   O  O19  1  0.706807  0.538451  0.355709  0  .  1
   O  O20  1  0.168356  0.461549  0.355709  0  .  1
   O  O21  1  0.293193  0.831644  0.355709  0  .  1
   O  O22  1  0.538451  0.706807  0.355709  0  .  1
 
