#\#CIF1.1
##########################################################################
#               Crystallographic Information Format file 
#               Produced by PyCifRW module
# 
#  This is a CIF file.  CIF has been adopted by the International
#  Union of Crystallography as the standard for data archiving and 
#  transmission.
#
#  For information on this file format, follow the CIF links at
#  http://www.iucr.org
##########################################################################

data_K3VO4
_symmetry_space_group_name_H-M          'P 1'
_cell_length_a                          6.589169033
_cell_length_b                          6.58916903348
_cell_length_c                          6.58916903226
_cell_angle_alpha                       75.0700712853
_cell_angle_beta                        128.963027543
_cell_angle_gamma                       128.963027501
_chemical_name_systematic               'Generated by pymatgen'
_symmetry_Int_Tables_number             1
_chemical_formula_structural            K3VO4
_chemical_formula_sum                   'K3 V1 O4'
_cell_volume                            168.411092493
_cell_formula_units_Z                   1
loop_
  _symmetry_equiv_pos_site_id
  _symmetry_equiv_pos_as_xyz
   1  'x, y, z'
 
loop_
  _atom_site_type_symbol
  _atom_site_label
  _atom_site_symmetry_multiplicity
  _atom_site_fract_x
  _atom_site_fract_y
  _atom_site_fract_z
  _atom_site_attached_hydrogens
  _atom_site_B_iso_or_equiv
  _atom_site_occupancy
   O  O1  1  0.641135  0.916543  0.916543  0  .  1
   O  O2  1  0.000000  0.083457  0.724592  0  .  1
   O  O3  1  1.000000  0.724592  0.083457  0  .  1
   O  O4  1  0.358865  0.275408  0.275408  0  .  1
   K  K5  1  0.500000  0.750000  0.250000  0  .  1
   K  K6  1  0.500000  0.250000  0.750000  0  .  1
   K  K7  1  0.000000  0.500000  0.500000  0  .  1
   V  V8  1  0.000000  0.000000  0.000000  0  .  1
 
