#\#CIF1.1
##########################################################################
#               Crystallographic Information Format file 
#               Produced by PyCifRW module
# 
#  This is a CIF file.  CIF has been adopted by the International
#  Union of Crystallography as the standard for data archiving and 
#  transmission.
#
#  For information on this file format, follow the CIF links at
#  http://www.iucr.org
##########################################################################

data_K3VS4
_symmetry_space_group_name_H-M          'P 1'
_cell_length_a                          9.31987476
_cell_length_b                          9.22006054
_cell_length_c                          10.73988288
_cell_angle_alpha                       90.0
_cell_angle_beta                        90.0
_cell_angle_gamma                       90.0
_chemical_name_systematic               'Generated by pymatgen'
_symmetry_Int_Tables_number             1
_chemical_formula_structural            K3VS4
_chemical_formula_sum                   'K12 V4 S16'
_cell_volume                            922.876090064
_cell_formula_units_Z                   4
loop_
  _symmetry_equiv_pos_site_id
  _symmetry_equiv_pos_as_xyz
   1  'x, y, z'
 
loop_
  _atom_site_type_symbol
  _atom_site_label
  _atom_site_symmetry_multiplicity
  _atom_site_fract_x
  _atom_site_fract_y
  _atom_site_fract_z
  _atom_site_attached_hydrogens
  _atom_site_B_iso_or_equiv
  _atom_site_occupancy
   S  S1  1  0.949219  0.668734  0.916069  0  .  1
   S  S2  1  0.245464  0.803103  0.750000  0  .  1
   S  S3  1  0.745464  0.696897  0.250000  0  .  1
   S  S4  1  0.254536  0.303103  0.750000  0  .  1
   S  S5  1  0.754536  0.196897  0.250000  0  .  1
   S  S6  1  0.919934  0.998975  0.750000  0  .  1
   S  S7  1  0.419934  0.501025  0.250000  0  .  1
   S  S8  1  0.580066  0.498975  0.750000  0  .  1
   S  S9  1  0.080066  0.001025  0.250000  0  .  1
   S  S10  1  0.050781  0.331266  0.416069  0  .  1
   S  S11  1  0.550781  0.168734  0.583931  0  .  1
   S  S12  1  0.449219  0.831266  0.083931  0  .  1
   S  S13  1  0.050781  0.331266  0.083931  0  .  1
   S  S14  1  0.949219  0.668734  0.583931  0  .  1
   S  S15  1  0.449219  0.831266  0.416069  0  .  1
   S  S16  1  0.550781  0.168734  0.916069  0  .  1
   K  K17  1  0.791781  0.946010  0.045825  0  .  1
   K  K18  1  0.580733  0.863457  0.750000  0  .  1
   K  K19  1  0.080733  0.636543  0.250000  0  .  1
   K  K20  1  0.919267  0.363457  0.750000  0  .  1
   K  K21  1  0.419267  0.136543  0.250000  0  .  1
   K  K22  1  0.208219  0.053990  0.545825  0  .  1
   K  K23  1  0.708219  0.446010  0.454175  0  .  1
   K  K24  1  0.291781  0.553990  0.954175  0  .  1
   K  K25  1  0.708219  0.446010  0.045825  0  .  1
   K  K26  1  0.791781  0.946010  0.454175  0  .  1
   K  K27  1  0.291781  0.553990  0.545825  0  .  1
   K  K28  1  0.208219  0.053990  0.954175  0  .  1
   V  V29  1  0.986185  0.216454  0.250000  0  .  1
   V  V30  1  0.486185  0.283546  0.750000  0  .  1
   V  V31  1  0.513815  0.716454  0.250000  0  .  1
   V  V32  1  0.013815  0.783546  0.750000  0  .  1
 
