#\#CIF1.1
##########################################################################
#               Crystallographic Information Format file 
#               Produced by PyCifRW module
# 
#  This is a CIF file.  CIF has been adopted by the International
#  Union of Crystallography as the standard for data archiving and 
#  transmission.
#
#  For information on this file format, follow the CIF links at
#  http://www.iucr.org
##########################################################################

data_K4Fe2O7
_symmetry_space_group_name_H-M          'P 1'
_cell_length_a                          23.84153886
_cell_length_b                          6.05834372
_cell_length_c                          10.50878637
_cell_angle_alpha                       90.0
_cell_angle_beta                        90.0
_cell_angle_gamma                       90.0
_chemical_name_systematic               'Generated by pymatgen'
_symmetry_Int_Tables_number             1
_chemical_formula_structural            K4Fe2O7
_chemical_formula_sum                   'K24 Fe12 O42'
_cell_volume                            1517.89159626
_cell_formula_units_Z                   6
loop_
  _symmetry_equiv_pos_site_id
  _symmetry_equiv_pos_as_xyz
   1  'x, y, z'
 
loop_
  _atom_site_type_symbol
  _atom_site_label
  _atom_site_symmetry_multiplicity
  _atom_site_fract_x
  _atom_site_fract_y
  _atom_site_fract_z
  _atom_site_attached_hydrogens
  _atom_site_B_iso_or_equiv
  _atom_site_occupancy
   K  K1  1  0.005326  0.750000  0.295808  0  .  1
   K  K2  1  0.051646  0.250000  0.089440  0  .  1
   K  K3  1  0.103086  0.750000  0.584367  0  .  1
   K  K4  1  0.164726  0.250000  0.786322  0  .  1
   K  K5  1  0.170468  0.750000  0.210090  0  .  1
   K  K6  1  0.230857  0.250000  0.419061  0  .  1
   K  K7  1  0.273767  0.750000  0.920943  0  .  1
   K  K8  1  0.328226  0.250000  0.707790  0  .  1
   K  K9  1  0.334540  0.750000  0.289470  0  .  1
   K  K10  1  0.387884  0.250000  0.083458  0  .  1
   K  K11  1  0.453121  0.750000  0.581227  0  .  1
   K  K12  1  0.496390  0.250000  0.790494  0  .  1
   K  K13  1  0.505326  0.750000  0.204192  0  .  1
   K  K14  1  0.551646  0.250000  0.410560  0  .  1
   K  K15  1  0.603086  0.750000  0.915633  0  .  1
   K  K16  1  0.664726  0.250000  0.713678  0  .  1
   K  K17  1  0.670468  0.750000  0.289910  0  .  1
   K  K18  1  0.730857  0.250000  0.080939  0  .  1
   K  K19  1  0.773767  0.750000  0.579057  0  .  1
   K  K20  1  0.828226  0.250000  0.792210  0  .  1
   K  K21  1  0.834540  0.750000  0.210530  0  .  1
   K  K22  1  0.887884  0.250000  0.416542  0  .  1
   K  K23  1  0.953121  0.750000  0.918773  0  .  1
   K  K24  1  0.996390  0.250000  0.709506  0  .  1
   Fe  Fe25  1  0.091833  0.250000  0.416810  0  .  1
   Fe  Fe26  1  0.090404  0.750000  0.924729  0  .  1
   Fe  Fe27  1  0.257910  0.250000  0.077028  0  .  1
   Fe  Fe28  1  0.241109  0.750000  0.577039  0  .  1
   Fe  Fe29  1  0.410613  0.250000  0.421602  0  .  1
   Fe  Fe30  1  0.423250  0.750000  0.922426  0  .  1
   Fe  Fe31  1  0.591833  0.250000  0.083190  0  .  1
   Fe  Fe32  1  0.590404  0.750000  0.575271  0  .  1
   Fe  Fe33  1  0.757910  0.250000  0.422972  0  .  1
   Fe  Fe34  1  0.741109  0.750000  0.922961  0  .  1
   Fe  Fe35  1  0.910613  0.250000  0.078398  0  .  1
   Fe  Fe36  1  0.923250  0.750000  0.577574  0  .  1
   O  O37  1  0.064575  0.525081  0.854027  0  .  1
   O  O38  1  0.064575  0.974919  0.854027  0  .  1
   O  O39  1  0.066860  0.750000  0.074309  0  .  1
   O  O40  1  0.092941  0.250000  0.576106  0  .  1
   O  O41  1  0.093947  0.486675  0.335961  0  .  1
   O  O42  1  0.093947  0.013325  0.335961  0  .  1
   O  O43  1  0.159161  0.750000  0.921108  0  .  1
   O  O44  1  0.239375  0.989735  0.654725  0  .  1
   O  O45  1  0.239375  0.510265  0.654725  0  .  1
   O  O46  1  0.237851  0.750000  0.418460  0  .  1
   O  O47  1  0.262821  0.250000  0.918673  0  .  1
   O  O48  1  0.261873  0.010983  0.154966  0  .  1
   O  O49  1  0.261873  0.489017  0.154966  0  .  1
   O  O50  1  0.341829  0.250000  0.417615  0  .  1
   O  O51  1  0.399265  0.524219  0.849998  0  .  1
   O  O52  1  0.399265  0.975781  0.849998  0  .  1
   O  O53  1  0.401396  0.750000  0.073490  0  .  1
   O  O54  1  0.433392  0.250000  0.572181  0  .  1
   O  O55  1  0.435787  0.025526  0.348787  0  .  1
   O  O56  1  0.435787  0.474474  0.348787  0  .  1
   O  O57  1  0.492512  0.750000  0.919681  0  .  1
   O  O58  1  0.564575  0.525081  0.645973  0  .  1
   O  O59  1  0.564575  0.974919  0.645973  0  .  1
   O  O60  1  0.566860  0.750000  0.425691  0  .  1
   O  O61  1  0.592941  0.250000  0.923894  0  .  1
   O  O62  1  0.593947  0.013325  0.164039  0  .  1
   O  O63  1  0.593947  0.486675  0.164039  0  .  1
   O  O64  1  0.659160  0.750000  0.578892  0  .  1
   O  O65  1  0.739375  0.510265  0.845275  0  .  1
   O  O66  1  0.739375  0.989735  0.845275  0  .  1
   O  O67  1  0.737851  0.750000  0.081540  0  .  1
   O  O68  1  0.762821  0.250000  0.581327  0  .  1
   O  O69  1  0.761873  0.010983  0.345034  0  .  1
   O  O70  1  0.761873  0.489017  0.345034  0  .  1
   O  O71  1  0.841829  0.250000  0.082385  0  .  1
   O  O72  1  0.899265  0.524219  0.650002  0  .  1
   O  O73  1  0.899265  0.975781  0.650002  0  .  1
   O  O74  1  0.901396  0.750000  0.426510  0  .  1
   O  O75  1  0.933392  0.250000  0.927819  0  .  1
   O  O76  1  0.935787  0.025526  0.151213  0  .  1
   O  O77  1  0.935787  0.474474  0.151213  0  .  1
   O  O78  1  0.992512  0.750000  0.580319  0  .  1
 
