#\#CIF1.1
##########################################################################
#               Crystallographic Information Format file 
#               Produced by PyCifRW module
# 
#  This is a CIF file.  CIF has been adopted by the International
#  Union of Crystallography as the standard for data archiving and 
#  transmission.
#
#  For information on this file format, follow the CIF links at
#  http://www.iucr.org
##########################################################################

data_K4Ti3S14
_symmetry_space_group_name_H-M          'P 1'
_cell_length_a                          8.10649874
_cell_length_b                          11.3973892105
_cell_length_c                          13.2682049302
_cell_angle_alpha                       111.522531066
_cell_angle_beta                        90.0
_cell_angle_gamma                       110.83203821
_chemical_name_systematic               'Generated by pymatgen'
_symmetry_Int_Tables_number             1
_chemical_formula_structural            K4Ti3S14
_chemical_formula_sum                   'K8 Ti6 S28'
_cell_volume                            1053.79058612
_cell_formula_units_Z                   2
loop_
  _symmetry_equiv_pos_site_id
  _symmetry_equiv_pos_as_xyz
   1  'x, y, z'
 
loop_
  _atom_site_type_symbol
  _atom_site_label
  _atom_site_symmetry_multiplicity
  _atom_site_fract_x
  _atom_site_fract_y
  _atom_site_fract_z
  _atom_site_attached_hydrogens
  _atom_site_B_iso_or_equiv
  _atom_site_occupancy
   Ti  Ti1  1  0.922136  0.334731  0.416099  0  .  1
   Ti  Ti2  1  0.587405  0.665269  0.083901  0  .  1
   Ti  Ti3  1  0.077864  0.665269  0.583901  0  .  1
   Ti  Ti4  1  0.412595  0.334731  0.916099  0  .  1
   Ti  Ti5  1  0.763360  0.000000  0.250000  0  .  1
   Ti  Ti6  1  0.236640  0.000000  0.750000  0  .  1
   S  S7  1  0.988499  0.557107  0.397644  0  .  1
   S  S8  1  0.431392  0.442893  0.102356  0  .  1
   S  S9  1  0.011501  0.442893  0.602356  0  .  1
   S  S10  1  0.568608  0.557107  0.897644  0  .  1
   S  S11  1  0.658943  0.139057  0.418892  0  .  1
   S  S12  1  0.519886  0.860943  0.081108  0  .  1
   S  S13  1  0.341057  0.860943  0.581108  0  .  1
   S  S14  1  0.480114  0.139057  0.918892  0  .  1
   S  S15  1  0.756100  0.190451  0.209026  0  .  1
   S  S16  1  0.565649  0.809549  0.290974  0  .  1
   S  S17  1  0.243900  0.809549  0.790974  0  .  1
   S  S18  1  0.434351  0.190451  0.709026  0  .  1
   S  S19  1  0.070834  0.171587  0.368754  0  .  1
   S  S20  1  0.899247  0.828413  0.131246  0  .  1
   S  S21  1  0.929166  0.828413  0.631246  0  .  1
   S  S22  1  0.100753  0.171587  0.868754  0  .  1
   S  S23  1  0.882677  0.075992  0.103697  0  .  1
   S  S24  1  0.806685  0.924008  0.396303  0  .  1
   S  S25  1  0.117323  0.924008  0.896303  0  .  1
   S  S26  1  0.193315  0.075992  0.603697  0  .  1
   S  S27  1  0.845496  0.655676  0.165090  0  .  1
   S  S28  1  0.189820  0.344324  0.334910  0  .  1
   S  S29  1  0.154504  0.344324  0.834910  0  .  1
   S  S30  1  0.810180  0.655676  0.665090  0  .  1
   S  S31  1  0.307119  0.707204  0.101590  0  .  1
   S  S32  1  0.599915  0.292796  0.398410  0  .  1
   S  S33  1  0.692881  0.292796  0.898410  0  .  1
   S  S34  1  0.400085  0.707204  0.601590  0  .  1
   K  K35  1  0.024008  0.403063  0.112823  0  .  1
   K  K36  1  0.620945  0.596937  0.387177  0  .  1
   K  K37  1  0.975992  0.596937  0.887177  0  .  1
   K  K38  1  0.379055  0.403063  0.612823  0  .  1
   K  K39  1  0.189575  0.859033  0.352675  0  .  1
   K  K40  1  0.330542  0.140967  0.147325  0  .  1
   K  K41  1  0.810425  0.140967  0.647325  0  .  1
   K  K42  1  0.669458  0.859033  0.852675  0  .  1
 
