#\#CIF1.1
##########################################################################
#               Crystallographic Information Format file 
#               Produced by PyCifRW module
# 
#  This is a CIF file.  CIF has been adopted by the International
#  Union of Crystallography as the standard for data archiving and 
#  transmission.
#
#  For information on this file format, follow the CIF links at
#  http://www.iucr.org
##########################################################################

data_K5V3O10
_symmetry_space_group_name_H-M          'P 1'
_cell_length_a                          8.32242681
_cell_length_b                          8.32242681
_cell_length_c                          19.16973812
_cell_angle_alpha                       90.0
_cell_angle_beta                        90.0
_cell_angle_gamma                       90.0
_chemical_name_systematic               'Generated by pymatgen'
_symmetry_Int_Tables_number             1
_chemical_formula_structural            K5V3O10
_chemical_formula_sum                   'K20 V12 O40'
_cell_volume                            1327.74950757
_cell_formula_units_Z                   4
loop_
  _symmetry_equiv_pos_site_id
  _symmetry_equiv_pos_as_xyz
   1  'x, y, z'
 
loop_
  _atom_site_type_symbol
  _atom_site_label
  _atom_site_symmetry_multiplicity
  _atom_site_fract_x
  _atom_site_fract_y
  _atom_site_fract_z
  _atom_site_attached_hydrogens
  _atom_site_B_iso_or_equiv
  _atom_site_occupancy
   O  O1  1  0.596383  0.684258  0.237845  0  .  1
   O  O2  1  0.403617  0.315742  0.737845  0  .  1
   O  O3  1  0.684258  0.596383  0.762155  0  .  1
   O  O4  1  0.184258  0.903617  0.987845  0  .  1
   O  O5  1  0.815742  0.096383  0.487845  0  .  1
   O  O6  1  0.903617  0.184258  0.012155  0  .  1
   O  O7  1  0.096383  0.815742  0.512155  0  .  1
   O  O8  1  0.315742  0.403617  0.262155  0  .  1
   O  O9  1  0.939701  0.667895  0.238936  0  .  1
   O  O10  1  0.060299  0.332105  0.738936  0  .  1
   O  O11  1  0.667895  0.939701  0.761064  0  .  1
   O  O12  1  0.167895  0.560299  0.988936  0  .  1
   O  O13  1  0.832105  0.439701  0.488936  0  .  1
   O  O14  1  0.560299  0.167895  0.011064  0  .  1
   O  O15  1  0.439701  0.832105  0.511064  0  .  1
   O  O16  1  0.332105  0.060299  0.261064  0  .  1
   O  O17  1  0.768805  0.762843  0.357676  0  .  1
   O  O18  1  0.715728  0.256394  0.322743  0  .  1
   O  O19  1  0.231195  0.237157  0.857676  0  .  1
   O  O20  1  0.262843  0.731195  0.107676  0  .  1
   O  O21  1  0.737157  0.268805  0.607676  0  .  1
   O  O22  1  0.731195  0.262843  0.892324  0  .  1
   O  O23  1  0.268805  0.737157  0.392324  0  .  1
   O  O24  1  0.237157  0.231195  0.142324  0  .  1
   O  O25  1  0.778735  0.978606  0.236576  0  .  1
   O  O26  1  0.221265  0.021394  0.736576  0  .  1
   O  O27  1  0.978606  0.778735  0.763424  0  .  1
   O  O28  1  0.478606  0.721265  0.986576  0  .  1
   O  O29  1  0.521394  0.278735  0.486576  0  .  1
   O  O30  1  0.721265  0.478606  0.013424  0  .  1
   O  O31  1  0.278735  0.521394  0.513424  0  .  1
   O  O32  1  0.021394  0.221265  0.263424  0  .  1
   O  O33  1  0.743606  0.284272  0.177257  0  .  1
   O  O34  1  0.215728  0.243606  0.427257  0  .  1
   O  O35  1  0.784272  0.756394  0.927257  0  .  1
   O  O36  1  0.243606  0.215728  0.572743  0  .  1
   O  O37  1  0.756394  0.784272  0.072743  0  .  1
   O  O38  1  0.256394  0.715728  0.677257  0  .  1
   O  O39  1  0.284272  0.743606  0.822743  0  .  1
   O  O40  1  0.762843  0.768805  0.642324  0  .  1
   K  K41  1  0.236040  0.236040  0.000000  0  .  1
   K  K42  1  0.263960  0.736040  0.250000  0  .  1
   K  K43  1  0.736040  0.263960  0.750000  0  .  1
   K  K44  1  0.763960  0.763960  0.500000  0  .  1
   K  K45  1  0.001064  0.972982  0.108395  0  .  1
   K  K46  1  0.527018  0.501064  0.358395  0  .  1
   K  K47  1  0.472982  0.498936  0.858394  0  .  1
   K  K48  1  0.501064  0.527018  0.641606  0  .  1
   K  K49  1  0.498936  0.472982  0.141605  0  .  1
   K  K50  1  0.998936  0.027018  0.608394  0  .  1
   K  K51  1  0.972982  0.001064  0.891606  0  .  1
   K  K52  1  0.027018  0.998936  0.391605  0  .  1
   K  K53  1  0.508998  0.023837  0.382840  0  .  1
   K  K54  1  0.491002  0.976163  0.882840  0  .  1
   K  K55  1  0.023837  0.508998  0.617160  0  .  1
   K  K56  1  0.523837  0.991002  0.132840  0  .  1
   K  K57  1  0.476163  0.008998  0.632840  0  .  1
   K  K58  1  0.991002  0.523837  0.867160  0  .  1
   K  K59  1  0.008998  0.476163  0.367160  0  .  1
   K  K60  1  0.976163  0.491002  0.117160  0  .  1
   V  V61  1  0.808764  0.191236  0.250000  0  .  1
   V  V62  1  0.308764  0.308764  0.500000  0  .  1
   V  V63  1  0.691236  0.691236  0.000000  0  .  1
   V  V64  1  0.191236  0.808764  0.750000  0  .  1
   V  V65  1  0.233801  0.228496  0.232249  0  .  1
   V  V66  1  0.271504  0.733801  0.482249  0  .  1
   V  V67  1  0.728496  0.266199  0.982249  0  .  1
   V  V68  1  0.733801  0.271504  0.517751  0  .  1
   V  V69  1  0.266199  0.728496  0.017751  0  .  1
   V  V70  1  0.766199  0.771504  0.732249  0  .  1
   V  V71  1  0.228496  0.233801  0.767751  0  .  1
   V  V72  1  0.771504  0.766199  0.267751  0  .  1
 
