#\#CIF1.1
##########################################################################
#               Crystallographic Information Format file 
#               Produced by PyCifRW module
# 
#  This is a CIF file.  CIF has been adopted by the International
#  Union of Crystallography as the standard for data archiving and 
#  transmission.
#
#  For information on this file format, follow the CIF links at
#  http://www.iucr.org
##########################################################################

data_K6CoS4
_symmetry_space_group_name_H-M          'P 1'
_cell_length_a                          9.80833795
_cell_length_b                          9.80833794938
_cell_length_c                          7.71733085
_cell_angle_alpha                       90.0
_cell_angle_beta                        90.0
_cell_angle_gamma                       120.000000036
_chemical_name_systematic               'Generated by pymatgen'
_symmetry_Int_Tables_number             1
_chemical_formula_structural            K6CoS4
_chemical_formula_sum                   'K12 Co2 S8'
_cell_volume                            642.966866343
_cell_formula_units_Z                   2
loop_
  _symmetry_equiv_pos_site_id
  _symmetry_equiv_pos_as_xyz
   1  'x, y, z'
 
loop_
  _atom_site_type_symbol
  _atom_site_label
  _atom_site_symmetry_multiplicity
  _atom_site_fract_x
  _atom_site_fract_y
  _atom_site_fract_z
  _atom_site_attached_hydrogens
  _atom_site_B_iso_or_equiv
  _atom_site_occupancy
   S  S1  1  0.799616  0.200384  0.656110  0  .  1
   S  S2  1  0.599233  0.799616  0.156110  0  .  1
   S  S3  1  0.200384  0.400767  0.156110  0  .  1
   S  S4  1  0.799616  0.599233  0.656110  0  .  1
   S  S5  1  0.400767  0.200384  0.656110  0  .  1
   S  S6  1  0.200384  0.799616  0.156110  0  .  1
   S  S7  1  0.666667  0.333333  0.059550  0  .  1
   S  S8  1  0.333333  0.666667  0.559550  0  .  1
   K  K9  1  0.529345  0.058689  0.366407  0  .  1
   K  K10  1  0.470655  0.529345  0.866407  0  .  1
   K  K11  1  0.941311  0.470655  0.366407  0  .  1
   K  K12  1  0.529345  0.470655  0.366407  0  .  1
   K  K13  1  0.146618  0.853382  0.542435  0  .  1
   K  K14  1  0.293235  0.146618  0.042435  0  .  1
   K  K15  1  0.058689  0.529345  0.866407  0  .  1
   K  K16  1  0.853382  0.706765  0.042435  0  .  1
   K  K17  1  0.853382  0.146618  0.042435  0  .  1
   K  K18  1  0.706765  0.853382  0.542435  0  .  1
   K  K19  1  0.146618  0.293235  0.542435  0  .  1
   K  K20  1  0.470655  0.941311  0.866407  0  .  1
   Co  Co21  1  0.666667  0.333333  0.752694  0  .  1
   Co  Co22  1  0.333333  0.666667  0.252694  0  .  1
 
