#\#CIF1.1
##########################################################################
#               Crystallographic Information Format file 
#               Produced by PyCifRW module
# 
#  This is a CIF file.  CIF has been adopted by the International
#  Union of Crystallography as the standard for data archiving and 
#  transmission.
#
#  For information on this file format, follow the CIF links at
#  http://www.iucr.org
##########################################################################

data_K6Fe2O5
_symmetry_space_group_name_H-M          'P 1'
_cell_length_a                          6.77701997667
_cell_length_b                          6.77223737698
_cell_length_c                          6.77223674491
_cell_angle_alpha                       117.85223497
_cell_angle_beta                        91.3533377503
_cell_angle_gamma                       91.35333716
_chemical_name_systematic               'Generated by pymatgen'
_symmetry_Int_Tables_number             1
_chemical_formula_structural            K6Fe2O5
_chemical_formula_sum                   'K6 Fe2 O5'
_cell_volume                            274.521605752
_cell_formula_units_Z                   1
loop_
  _symmetry_equiv_pos_site_id
  _symmetry_equiv_pos_as_xyz
   1  'x, y, z'
 
loop_
  _atom_site_type_symbol
  _atom_site_label
  _atom_site_symmetry_multiplicity
  _atom_site_fract_x
  _atom_site_fract_y
  _atom_site_fract_z
  _atom_site_attached_hydrogens
  _atom_site_B_iso_or_equiv
  _atom_site_occupancy
   Fe  Fe1  1  0.332453  0.789867  0.789867  0  .  1
   Fe  Fe2  1  0.697001  0.188652  0.188652  0  .  1
   K  K3  1  0.994394  0.210292  0.786901  0  .  1
   K  K4  1  0.170539  0.362730  0.362730  0  .  1
   K  K5  1  0.503374  0.756230  0.242781  0  .  1
   K  K6  1  0.503374  0.242781  0.756230  0  .  1
   K  K7  1  0.826808  0.645662  0.645662  0  .  1
   K  K8  1  0.994394  0.786901  0.210292  0  .  1
   O  O9  1  0.218785  0.841941  0.560752  0  .  1
   O  O10  1  0.218785  0.560752  0.841941  0  .  1
   O  O11  1  0.585831  0.929338  0.929338  0  .  1
   O  O12  1  0.771681  0.165999  0.447255  0  .  1
   O  O13  1  0.771681  0.447255  0.165999  0  .  1
 
