#\#CIF1.1
##########################################################################
#               Crystallographic Information Format file 
#               Produced by PyCifRW module
# 
#  This is a CIF file.  CIF has been adopted by the International
#  Union of Crystallography as the standard for data archiving and 
#  transmission.
#
#  For information on this file format, follow the CIF links at
#  http://www.iucr.org
##########################################################################

data_K6MnS4
_symmetry_space_group_name_H-M          'P 1'
_cell_length_a                          9.90996422
_cell_length_b                          9.90996421557
_cell_length_c                          7.75550535
_cell_angle_alpha                       90.0
_cell_angle_beta                        90.0
_cell_angle_gamma                       120.000000015
_chemical_name_systematic               'Generated by pymatgen'
_symmetry_Int_Tables_number             1
_chemical_formula_structural            K6MnS4
_chemical_formula_sum                   'K12 Mn2 S8'
_cell_volume                            659.606468788
_cell_formula_units_Z                   2
loop_
  _symmetry_equiv_pos_site_id
  _symmetry_equiv_pos_as_xyz
   1  'x, y, z'
 
loop_
  _atom_site_type_symbol
  _atom_site_label
  _atom_site_symmetry_multiplicity
  _atom_site_fract_x
  _atom_site_fract_y
  _atom_site_fract_z
  _atom_site_attached_hydrogens
  _atom_site_B_iso_or_equiv
  _atom_site_occupancy
   S  S1  1  0.803011  0.196989  0.653599  0  .  1
   S  S2  1  0.606023  0.803011  0.153599  0  .  1
   S  S3  1  0.196989  0.393977  0.153599  0  .  1
   S  S4  1  0.803011  0.606023  0.653599  0  .  1
   S  S5  1  0.393977  0.196989  0.653599  0  .  1
   S  S6  1  0.196989  0.803011  0.153599  0  .  1
   S  S7  1  0.666667  0.333333  0.069396  0  .  1
   S  S8  1  0.333333  0.666667  0.569396  0  .  1
   K  K9  1  0.530184  0.060368  0.366577  0  .  1
   K  K10  1  0.469816  0.530184  0.866577  0  .  1
   K  K11  1  0.939632  0.469816  0.366577  0  .  1
   K  K12  1  0.530184  0.469816  0.366577  0  .  1
   K  K13  1  0.146572  0.853428  0.541726  0  .  1
   K  K14  1  0.293144  0.146572  0.041726  0  .  1
   K  K15  1  0.060368  0.530184  0.866577  0  .  1
   K  K16  1  0.853428  0.706856  0.041726  0  .  1
   K  K17  1  0.853428  0.146572  0.041726  0  .  1
   K  K18  1  0.706856  0.853428  0.541726  0  .  1
   K  K19  1  0.146572  0.293144  0.541726  0  .  1
   K  K20  1  0.469816  0.939632  0.866577  0  .  1
   Mn  Mn21  1  0.666667  0.333333  0.752595  0  .  1
   Mn  Mn22  1  0.333333  0.666667  0.252595  0  .  1
 
