#\#CIF1.1
##########################################################################
#               Crystallographic Information Format file 
#               Produced by PyCifRW module
# 
#  This is a CIF file.  CIF has been adopted by the International
#  Union of Crystallography as the standard for data archiving and 
#  transmission.
#
#  For information on this file format, follow the CIF links at
#  http://www.iucr.org
##########################################################################

data_KCa10V7O28
_symmetry_space_group_name_H-M          'P 1'
_cell_length_a                          14.2394984495
_cell_length_b                          14.2394987523
_cell_length_c                          14.2394981108
_cell_angle_alpha                       45.5536066505
_cell_angle_beta                        45.5536054237
_cell_angle_gamma                       45.5536063097
_chemical_name_systematic               'Generated by pymatgen'
_symmetry_Int_Tables_number             1
_chemical_formula_structural            KCa10V7O28
_chemical_formula_sum                   'K2 Ca20 V14 O56'
_cell_volume                            1340.92573554
_cell_formula_units_Z                   2
loop_
  _symmetry_equiv_pos_site_id
  _symmetry_equiv_pos_as_xyz
   1  'x, y, z'
 
loop_
  _atom_site_type_symbol
  _atom_site_label
  _atom_site_symmetry_multiplicity
  _atom_site_fract_x
  _atom_site_fract_y
  _atom_site_fract_z
  _atom_site_attached_hydrogens
  _atom_site_B_iso_or_equiv
  _atom_site_occupancy
   K  K1  1  0.296886  0.296886  0.296886  0  .  1
   K  K2  1  0.796886  0.796886  0.796886  0  .  1
   Ca  Ca3  1  0.480277  0.480277  0.480277  0  .  1
   Ca  Ca4  1  0.074778  0.637059  0.027287  0  .  1
   Ca  Ca5  1  0.324407  0.911243  0.914521  0  .  1
   Ca  Ca6  1  0.637059  0.027287  0.074778  0  .  1
   Ca  Ca7  1  0.911243  0.914521  0.324407  0  .  1
   Ca  Ca8  1  0.002258  0.419198  0.044739  0  .  1
   Ca  Ca9  1  0.411243  0.824407  0.414521  0  .  1
   Ca  Ca10  1  0.414521  0.411243  0.824407  0  .  1
   Ca  Ca11  1  0.027287  0.074778  0.637059  0  .  1
   Ca  Ca12  1  0.914521  0.324407  0.911243  0  .  1
   Ca  Ca13  1  0.980277  0.980277  0.980277  0  .  1
   Ca  Ca14  1  0.137059  0.574778  0.527287  0  .  1
   Ca  Ca15  1  0.574778  0.527287  0.137059  0  .  1
   Ca  Ca16  1  0.527287  0.137059  0.574778  0  .  1
   Ca  Ca17  1  0.544739  0.919198  0.502258  0  .  1
   Ca  Ca18  1  0.044739  0.002258  0.419198  0  .  1
   Ca  Ca19  1  0.919198  0.502258  0.544739  0  .  1
   Ca  Ca20  1  0.824407  0.414521  0.411243  0  .  1
   Ca  Ca21  1  0.419198  0.044739  0.002258  0  .  1
   Ca  Ca22  1  0.502258  0.544739  0.919198  0  .  1
   V  V23  1  0.711164  0.669564  0.157529  0  .  1
   V  V24  1  0.169564  0.211164  0.657529  0  .  1
   V  V25  1  0.247622  0.301975  0.796828  0  .  1
   V  V26  1  0.669564  0.157529  0.711164  0  .  1
   V  V27  1  0.801975  0.747622  0.296828  0  .  1
   V  V28  1  0.296828  0.801975  0.747622  0  .  1
   V  V29  1  0.301975  0.796828  0.247622  0  .  1
   V  V30  1  0.711848  0.711848  0.711848  0  .  1
   V  V31  1  0.796828  0.247622  0.301975  0  .  1
   V  V32  1  0.211164  0.657529  0.169564  0  .  1
   V  V33  1  0.657529  0.169564  0.211164  0  .  1
   V  V34  1  0.747622  0.296828  0.801975  0  .  1
   V  V35  1  0.157529  0.711164  0.669564  0  .  1
   V  V36  1  0.211848  0.211848  0.211848  0  .  1
   O  O37  1  0.359856  0.620894  0.803221  0  .  1
   O  O38  1  0.856586  0.072050  0.642359  0  .  1
   O  O39  1  0.600650  0.083133  0.725377  0  .  1
   O  O40  1  0.116084  0.103865  0.843238  0  .  1
   O  O41  1  0.850271  0.061924  0.404368  0  .  1
   O  O42  1  0.579314  0.881838  0.715436  0  .  1
   O  O43  1  0.166198  0.166198  0.166198  0  .  1
   O  O44  1  0.832382  0.108267  0.870810  0  .  1
   O  O45  1  0.583133  0.100650  0.225377  0  .  1
   O  O46  1  0.225377  0.583133  0.100650  0  .  1
   O  O47  1  0.103865  0.843238  0.116084  0  .  1
   O  O48  1  0.572050  0.356586  0.142359  0  .  1
   O  O49  1  0.072050  0.642359  0.856586  0  .  1
   O  O50  1  0.343238  0.603865  0.616084  0  .  1
   O  O51  1  0.800260  0.367341  0.812102  0  .  1
   O  O52  1  0.608267  0.332382  0.370810  0  .  1
   O  O53  1  0.385141  0.648217  0.076768  0  .  1
   O  O54  1  0.076768  0.385141  0.648217  0  .  1
   O  O55  1  0.120894  0.859856  0.303221  0  .  1
   O  O56  1  0.666198  0.666198  0.666198  0  .  1
   O  O57  1  0.725377  0.600650  0.083133  0  .  1
   O  O58  1  0.332382  0.370810  0.608267  0  .  1
   O  O59  1  0.881838  0.715436  0.579314  0  .  1
   O  O60  1  0.803221  0.359856  0.620894  0  .  1
   O  O61  1  0.404368  0.850271  0.061924  0  .  1
   O  O62  1  0.083133  0.725377  0.600650  0  .  1
   O  O63  1  0.303221  0.120894  0.859856  0  .  1
   O  O64  1  0.620894  0.803221  0.359856  0  .  1
   O  O65  1  0.715436  0.579314  0.881838  0  .  1
   O  O66  1  0.561924  0.350271  0.904368  0  .  1
   O  O67  1  0.215436  0.381838  0.079314  0  .  1
   O  O68  1  0.870810  0.832382  0.108267  0  .  1
   O  O69  1  0.812102  0.800260  0.367341  0  .  1
   O  O70  1  0.370810  0.608267  0.332382  0  .  1
   O  O71  1  0.312102  0.867341  0.300260  0  .  1
   O  O72  1  0.367341  0.812102  0.800260  0  .  1
   O  O73  1  0.356586  0.142359  0.572050  0  .  1
   O  O74  1  0.616084  0.343238  0.603865  0  .  1
   O  O75  1  0.061924  0.404368  0.850271  0  .  1
   O  O76  1  0.576768  0.148217  0.885141  0  .  1
   O  O77  1  0.603865  0.616084  0.343238  0  .  1
   O  O78  1  0.148217  0.885141  0.576768  0  .  1
   O  O79  1  0.642359  0.856586  0.072050  0  .  1
   O  O80  1  0.904368  0.561924  0.350271  0  .  1
   O  O81  1  0.885141  0.576768  0.148217  0  .  1
   O  O82  1  0.079314  0.215436  0.381838  0  .  1
   O  O83  1  0.859856  0.303221  0.120894  0  .  1
   O  O84  1  0.867341  0.300260  0.312102  0  .  1
   O  O85  1  0.100650  0.225377  0.583133  0  .  1
   O  O86  1  0.108267  0.870810  0.832382  0  .  1
   O  O87  1  0.300260  0.312102  0.867341  0  .  1
   O  O88  1  0.381838  0.079314  0.215436  0  .  1
   O  O89  1  0.648217  0.076768  0.385141  0  .  1
   O  O90  1  0.843238  0.116084  0.103865  0  .  1
   O  O91  1  0.142359  0.572050  0.356586  0  .  1
   O  O92  1  0.350271  0.904368  0.561924  0  .  1
 
