#\#CIF1.1
##########################################################################
#               Crystallographic Information Format file 
#               Produced by PyCifRW module
# 
#  This is a CIF file.  CIF has been adopted by the International
#  Union of Crystallography as the standard for data archiving and 
#  transmission.
#
#  For information on this file format, follow the CIF links at
#  http://www.iucr.org
##########################################################################

data_KCoO2
_symmetry_space_group_name_H-M          'P 1'
_cell_length_a                          3.85567119
_cell_length_b                          3.85567119
_cell_length_c                          8.02519191
_cell_angle_alpha                       90.0
_cell_angle_beta                        90.0
_cell_angle_gamma                       90.0
_chemical_name_systematic               'Generated by pymatgen'
_symmetry_Int_Tables_number             1
_chemical_formula_structural            KCoO2
_chemical_formula_sum                   'K2 Co2 O4'
_cell_volume                            119.304110584
_cell_formula_units_Z                   2
loop_
  _symmetry_equiv_pos_site_id
  _symmetry_equiv_pos_as_xyz
   1  'x, y, z'
 
loop_
  _atom_site_type_symbol
  _atom_site_label
  _atom_site_symmetry_multiplicity
  _atom_site_fract_x
  _atom_site_fract_y
  _atom_site_fract_z
  _atom_site_attached_hydrogens
  _atom_site_B_iso_or_equiv
  _atom_site_occupancy
   O  O1  1  0.249999  0.750001  0.000000  0  .  1
   O  O2  1  0.750001  0.249999  0.000000  0  .  1
   O  O3  1  0.750001  0.750001  0.690807  0  .  1
   O  O4  1  0.249999  0.249999  0.309193  0  .  1
   K  K5  1  0.750001  0.750001  0.340533  0  .  1
   K  K6  1  0.249999  0.249999  0.659468  0  .  1
   Co  Co7  1  0.750001  0.750001  0.907763  0  .  1
   Co  Co8  1  0.249999  0.249999  0.092236  0  .  1
 
