#\#CIF1.1
##########################################################################
#               Crystallographic Information Format file 
#               Produced by PyCifRW module
# 
#  This is a CIF file.  CIF has been adopted by the International
#  Union of Crystallography as the standard for data archiving and 
#  transmission.
#
#  For information on this file format, follow the CIF links at
#  http://www.iucr.org
##########################################################################

data_KCr3O8
_symmetry_space_group_name_H-M          'P 1'
_cell_length_a                          5.22717394335
_cell_length_b                          5.22717394792
_cell_length_c                          7.85729903581
_cell_angle_alpha                       86.8925397713
_cell_angle_beta                        86.8925398136
_cell_angle_gamma                       63.8646651971
_chemical_name_systematic               'Generated by pymatgen'
_symmetry_Int_Tables_number             1
_chemical_formula_structural            KCr3O8
_chemical_formula_sum                   'K1 Cr3 O8'
_cell_volume                            192.343616117
_cell_formula_units_Z                   1
loop_
  _symmetry_equiv_pos_site_id
  _symmetry_equiv_pos_as_xyz
   1  'x, y, z'
 
loop_
  _atom_site_type_symbol
  _atom_site_label
  _atom_site_symmetry_multiplicity
  _atom_site_fract_x
  _atom_site_fract_y
  _atom_site_fract_z
  _atom_site_attached_hydrogens
  _atom_site_B_iso_or_equiv
  _atom_site_occupancy
   O  O1  1  0.778820  0.276426  0.680033  0  .  1
   O  O2  1  0.723574  0.221180  0.319966  0  .  1
   O  O3  1  0.221180  0.723574  0.319966  0  .  1
   O  O4  1  0.276426  0.778820  0.680033  0  .  1
   O  O5  1  0.220400  0.220400  0.437712  0  .  1
   O  O6  1  0.779600  0.779600  0.562288  0  .  1
   O  O7  1  0.688164  0.688164  0.897983  0  .  1
   O  O8  1  0.311836  0.311836  0.102017  0  .  1
   K  K9  1  0.000000  0.000000  0.000000  0  .  1
   Cr  Cr10  1  0.633262  0.633262  0.704840  0  .  1
   Cr  Cr11  1  0.000000  0.000000  0.500000  0  .  1
   Cr  Cr12  1  0.366738  0.366738  0.295160  0  .  1
 
