#\#CIF1.1
##########################################################################
#               Crystallographic Information Format file 
#               Produced by PyCifRW module
# 
#  This is a CIF file.  CIF has been adopted by the International
#  Union of Crystallography as the standard for data archiving and 
#  transmission.
#
#  For information on this file format, follow the CIF links at
#  http://www.iucr.org
##########################################################################

data_KCu3Te2
_symmetry_space_group_name_H-M          'P 1'
_cell_length_a                          4.26097248
_cell_length_b                          8.46613638909
_cell_length_c                          8.68281208419
_cell_angle_alpha                       110.856980347
_cell_angle_beta                        90.0
_cell_angle_gamma                       104.575053435
_chemical_name_systematic               'Generated by pymatgen'
_symmetry_Int_Tables_number             1
_chemical_formula_structural            KCu3Te2
_chemical_formula_sum                   'K2 Cu6 Te4'
_cell_volume                            281.885753392
_cell_formula_units_Z                   2
loop_
  _symmetry_equiv_pos_site_id
  _symmetry_equiv_pos_as_xyz
   1  'x, y, z'
 
loop_
  _atom_site_type_symbol
  _atom_site_label
  _atom_site_symmetry_multiplicity
  _atom_site_fract_x
  _atom_site_fract_y
  _atom_site_fract_z
  _atom_site_attached_hydrogens
  _atom_site_B_iso_or_equiv
  _atom_site_occupancy
   K  K1  1  0.133827  0.267653  0.045555  0  .  1
   K  K2  1  0.866173  0.732347  0.954445  0  .  1
   Cu  Cu3  1  0.583654  0.167307  0.600581  0  .  1
   Cu  Cu4  1  0.416346  0.832693  0.399419  0  .  1
   Cu  Cu5  1  0.696084  0.392168  0.471328  0  .  1
   Cu  Cu6  1  0.303916  0.607832  0.528672  0  .  1
   Cu  Cu7  1  0.929744  0.859489  0.583562  0  .  1
   Cu  Cu8  1  0.070256  0.140511  0.416438  0  .  1
   Te  Te9  1  0.798190  0.596380  0.304887  0  .  1
   Te  Te10  1  0.201810  0.403620  0.695113  0  .  1
   Te  Te11  1  0.520872  0.041744  0.239011  0  .  1
   Te  Te12  1  0.479128  0.958256  0.760989  0  .  1
 
