#\#CIF1.1
##########################################################################
#               Crystallographic Information Format file 
#               Produced by PyCifRW module
# 
#  This is a CIF file.  CIF has been adopted by the International
#  Union of Crystallography as the standard for data archiving and 
#  transmission.
#
#  For information on this file format, follow the CIF links at
#  http://www.iucr.org
##########################################################################

data_KCu3S2
_symmetry_space_group_name_H-M          'P 1'
_cell_length_a                          3.89718001
_cell_length_b                          7.55015074853
_cell_length_c                          8.29652520145
_cell_angle_alpha                       112.521994118
_cell_angle_beta                        90.0
_cell_angle_gamma                       104.956536503
_chemical_name_systematic               'Generated by pymatgen'
_symmetry_Int_Tables_number             1
_chemical_formula_structural            KCu3S2
_chemical_formula_sum                   'K2 Cu6 S4'
_cell_volume                            216.520760131
_cell_formula_units_Z                   2
loop_
  _symmetry_equiv_pos_site_id
  _symmetry_equiv_pos_as_xyz
   1  'x, y, z'
 
loop_
  _atom_site_type_symbol
  _atom_site_label
  _atom_site_symmetry_multiplicity
  _atom_site_fract_x
  _atom_site_fract_y
  _atom_site_fract_z
  _atom_site_attached_hydrogens
  _atom_site_B_iso_or_equiv
  _atom_site_occupancy
   S  S1  1  0.478134  0.956269  0.761688  0  .  1
   S  S2  1  0.192872  0.385745  0.691073  0  .  1
   S  S3  1  0.807128  0.614255  0.308927  0  .  1
   S  S4  1  0.521866  0.043731  0.238312  0  .  1
   K  K5  1  0.864850  0.729701  0.955705  0  .  1
   K  K6  1  0.135150  0.270299  0.044295  0  .  1
   Cu  Cu7  1  0.310443  0.620887  0.582322  0  .  1
   Cu  Cu8  1  0.936025  0.872051  0.590875  0  .  1
   Cu  Cu9  1  0.689557  0.379113  0.417678  0  .  1
   Cu  Cu10  1  0.406101  0.812202  0.360280  0  .  1
   Cu  Cu11  1  0.593899  0.187798  0.639720  0  .  1
   Cu  Cu12  1  0.063975  0.127949  0.409125  0  .  1
 
