#\#CIF1.1
##########################################################################
#               Crystallographic Information Format file 
#               Produced by PyCifRW module
# 
#  This is a CIF file.  CIF has been adopted by the International
#  Union of Crystallography as the standard for data archiving and 
#  transmission.
#
#  For information on this file format, follow the CIF links at
#  http://www.iucr.org
##########################################################################

data_KCuO2
_symmetry_space_group_name_H-M          'P 1'
_cell_length_a                          4.53734956971
_cell_length_b                          5.48625938
_cell_length_c                          6.25185670096
_cell_angle_alpha                       90.0
_cell_angle_beta                        111.277182443
_cell_angle_gamma                       90.0
_chemical_name_systematic               'Generated by pymatgen'
_symmetry_Int_Tables_number             1
_chemical_formula_structural            KCuO2
_chemical_formula_sum                   'K2 Cu2 O4'
_cell_volume                            145.019695808
_cell_formula_units_Z                   2
loop_
  _symmetry_equiv_pos_site_id
  _symmetry_equiv_pos_as_xyz
   1  'x, y, z'
 
loop_
  _atom_site_type_symbol
  _atom_site_label
  _atom_site_symmetry_multiplicity
  _atom_site_fract_x
  _atom_site_fract_y
  _atom_site_fract_z
  _atom_site_attached_hydrogens
  _atom_site_B_iso_or_equiv
  _atom_site_occupancy
   O  O1  1  0.894084  0.504802  0.788167  0  .  1
   O  O2  1  0.105916  0.495198  0.211833  0  .  1
   O  O3  1  0.894084  0.995198  0.788167  0  .  1
   O  O4  1  0.105916  0.004802  0.211833  0  .  1
   K  K5  1  0.303255  0.750000  0.606509  0  .  1
   K  K6  1  0.696745  0.250000  0.393491  0  .  1
   Cu  Cu7  1  0.997453  0.250000  0.994906  0  .  1
   Cu  Cu8  1  0.002547  0.750000  0.005094  0  .  1
 
