#\#CIF1.1
##########################################################################
#               Crystallographic Information Format file 
#               Produced by PyCifRW module
# 
#  This is a CIF file.  CIF has been adopted by the International
#  Union of Crystallography as the standard for data archiving and 
#  transmission.
#
#  For information on this file format, follow the CIF links at
#  http://www.iucr.org
##########################################################################

data_KFeO2
_symmetry_space_group_name_H-M          'P 1'
_cell_length_a                          6.62830197181
_cell_length_b                          6.62830198763
_cell_length_c                          8.38709977762
_cell_angle_alpha                       54.0260525519
_cell_angle_beta                        125.973948529
_cell_angle_gamma                       151.723423232
_chemical_name_systematic               'Generated by pymatgen'
_symmetry_Int_Tables_number             1
_chemical_formula_structural            KFeO2
_chemical_formula_sum                   'K2 Fe2 O4'
_cell_volume                            138.887624727
_cell_formula_units_Z                   2
loop_
  _symmetry_equiv_pos_site_id
  _symmetry_equiv_pos_as_xyz
   1  'x, y, z'
 
loop_
  _atom_site_type_symbol
  _atom_site_label
  _atom_site_symmetry_multiplicity
  _atom_site_fract_x
  _atom_site_fract_y
  _atom_site_fract_z
  _atom_site_attached_hydrogens
  _atom_site_B_iso_or_equiv
  _atom_site_occupancy
   K  K1  1  0.171665  0.828335  0.684393  0  .  1
   K  K2  1  0.828335  0.171665  0.315607  0  .  1
   Fe  Fe3  1  0.022972  0.977028  0.180253  0  .  1
   Fe  Fe4  1  0.977028  0.022972  0.819747  0  .  1
   O  O5  1  0.130869  0.869131  0.092577  0  .  1
   O  O6  1  0.460876  0.539124  0.677252  0  .  1
   O  O7  1  0.539124  0.460876  0.322748  0  .  1
   O  O8  1  0.869131  0.130869  0.907423  0  .  1
 
