#\#CIF1.1
##########################################################################
#               Crystallographic Information Format file 
#               Produced by PyCifRW module
# 
#  This is a CIF file.  CIF has been adopted by the International
#  Union of Crystallography as the standard for data archiving and 
#  transmission.
#
#  For information on this file format, follow the CIF links at
#  http://www.iucr.org
##########################################################################

data_KMnVO4
_symmetry_space_group_name_H-M          'P 1'
_cell_length_a                          5.72077912
_cell_length_b                          12.2952702981
_cell_length_c                          24.3011473991
_cell_angle_alpha                       103.613011247
_cell_angle_beta                        90.0
_cell_angle_gamma                       90.0
_chemical_name_systematic               'Generated by pymatgen'
_symmetry_Int_Tables_number             1
_chemical_formula_structural            KMnVO4
_chemical_formula_sum                   'K16 Mn16 V16 O64'
_cell_volume                            1661.288307
_cell_formula_units_Z                   16
loop_
  _symmetry_equiv_pos_site_id
  _symmetry_equiv_pos_as_xyz
   1  'x, y, z'
 
loop_
  _atom_site_type_symbol
  _atom_site_label
  _atom_site_symmetry_multiplicity
  _atom_site_fract_x
  _atom_site_fract_y
  _atom_site_fract_z
  _atom_site_attached_hydrogens
  _atom_site_B_iso_or_equiv
  _atom_site_occupancy
   K  K1  1  0.214110  0.441260  0.812911  0  .  1
   K  K2  1  0.716020  0.806781  0.935539  0  .  1
   K  K3  1  0.730441  0.377052  0.694883  0  .  1
   K  K4  1  0.783980  0.306781  0.435539  0  .  1
   K  K5  1  0.230441  0.122948  0.805117  0  .  1
   K  K6  1  0.727635  0.734232  0.684932  0  .  1
   K  K7  1  0.785890  0.558740  0.187089  0  .  1
   K  K8  1  0.772365  0.234232  0.184932  0  .  1
   K  K9  1  0.216020  0.693219  0.564461  0  .  1
   K  K10  1  0.227635  0.765768  0.815068  0  .  1
   K  K11  1  0.283980  0.193219  0.064461  0  .  1
   K  K12  1  0.269559  0.622948  0.305117  0  .  1
   K  K13  1  0.714110  0.058740  0.687089  0  .  1
   K  K14  1  0.272365  0.265768  0.315068  0  .  1
   K  K15  1  0.769559  0.877052  0.194883  0  .  1
   K  K16  1  0.285890  0.941260  0.312911  0  .  1
   Mn  Mn17  1  0.764209  0.440582  0.318492  0  .  1
   Mn  Mn18  1  0.257485  0.386034  0.560627  0  .  1
   Mn  Mn19  1  0.235791  0.559418  0.681508  0  .  1
   Mn  Mn20  1  0.742260  0.676156  0.058375  0  .  1
   Mn  Mn21  1  0.757740  0.176156  0.558375  0  .  1
   Mn  Mn22  1  0.257740  0.323844  0.941625  0  .  1
   Mn  Mn23  1  0.723074  0.499856  0.922774  0  .  1
   Mn  Mn24  1  0.242515  0.886034  0.060627  0  .  1
   Mn  Mn25  1  0.776926  -0.000144  0.422774  0  .  1
   Mn  Mn26  1  0.223074  1.000144  0.577226  0  .  1
   Mn  Mn27  1  0.757485  0.113966  0.939373  0  .  1
   Mn  Mn28  1  0.264209  0.059418  0.181508  0  .  1
   Mn  Mn29  1  0.742515  0.613966  0.439373  0  .  1
   Mn  Mn30  1  0.276926  0.500144  0.077226  0  .  1
   Mn  Mn31  1  0.242260  0.823844  0.441625  0  .  1
   Mn  Mn32  1  0.735791  0.940582  0.818492  0  .  1
   V  V33  1  0.729484  0.864703  0.536026  0  .  1
   V  V34  1  0.272964  0.385633  0.208917  0  .  1
   V  V35  1  0.244966  0.233814  0.652482  0  .  1
   V  V36  1  0.229484  0.635297  0.963974  0  .  1
   V  V37  1  0.770516  0.364703  0.036026  0  .  1
   V  V38  1  0.755035  0.766186  0.347518  0  .  1
   V  V39  1  0.227036  0.885633  0.708917  0  .  1
   V  V40  1  0.773150  0.994229  0.070123  0  .  1
   V  V41  1  0.744965  0.266186  0.847518  0  .  1
   V  V42  1  0.772964  0.114367  0.291083  0  .  1
   V  V43  1  0.727036  0.614367  0.791083  0  .  1
   V  V44  1  0.273150  0.505771  0.429877  0  .  1
   V  V45  1  0.726850  0.494229  0.570123  0  .  1
   V  V46  1  0.255034  0.733814  0.152482  0  .  1
   V  V47  1  0.226850  0.005771  0.929877  0  .  1
   V  V48  1  0.270516  0.135297  0.463974  0  .  1
   O  O49  1  0.505977  0.014496  0.107261  0  .  1
   O  O50  1  0.748995  0.312619  0.093766  0  .  1
   O  O51  1  0.250533  0.455039  0.490065  0  .  1
   O  O52  1  0.251005  0.687381  0.906234  0  .  1
   O  O53  1  0.778288  0.260406  0.311658  0  .  1
   O  O54  1  0.185151  0.725822  0.218800  0  .  1
   O  O55  1  0.249467  0.955039  0.990065  0  .  1
   O  O56  1  0.045987  0.803878  0.364639  0  .  1
   O  O57  1  0.613206  0.275392  0.980209  0  .  1
   O  O58  1  0.716101  0.625902  0.351794  0  .  1
   O  O59  1  0.075513  0.380697  0.021473  0  .  1
   O  O60  1  0.494023  0.985504  0.892739  0  .  1
   O  O61  1  0.019818  0.068716  0.249900  0  .  1
   O  O62  1  0.849328  0.850159  0.053888  0  .  1
   O  O63  1  0.750533  0.044961  0.009935  0  .  1
   O  O64  1  0.721712  0.760406  0.811658  0  .  1
   O  O65  1  0.498477  0.440881  0.386146  0  .  1
   O  O66  1  0.266384  0.444054  0.150348  0  .  1
   O  O67  1  0.545987  0.696122  0.135361  0  .  1
   O  O68  1  0.216101  0.874098  0.148206  0  .  1
   O  O69  1  0.436457  0.142391  0.604001  0  .  1
   O  O70  1  0.814849  0.274178  0.781200  0  .  1
   O  O71  1  0.751005  0.812619  0.593766  0  .  1
   O  O72  1  0.954013  0.196122  0.635361  0  .  1
   O  O73  1  0.685151  0.774178  0.281200  0  .  1
   O  O74  1  0.454013  0.303878  0.864639  0  .  1
   O  O75  1  0.063543  0.642391  0.104001  0  .  1
   O  O76  1  0.733616  0.555946  0.849652  0  .  1
   O  O77  1  0.372421  0.503582  0.948897  0  .  1
   O  O78  1  0.563543  0.857609  0.395999  0  .  1
   O  O79  1  0.221712  0.739594  0.688342  0  .  1
   O  O80  1  0.150672  0.149841  0.946112  0  .  1
   O  O81  1  0.113206  0.224608  0.519791  0  .  1
   O  O82  1  0.001523  0.940881  0.886146  0  .  1
   O  O83  1  0.872421  0.996418  0.551103  0  .  1
   O  O84  1  0.233616  0.944054  0.650348  0  .  1
   O  O85  1  0.980182  0.931284  0.750100  0  .  1
   O  O86  1  0.470030  0.929302  0.752424  0  .  1
   O  O87  1  0.386794  0.724608  0.019791  0  .  1
   O  O88  1  0.575513  0.119303  0.478527  0  .  1
   O  O89  1  0.998477  0.059119  0.113854  0  .  1
   O  O90  1  0.029970  0.429302  0.252424  0  .  1
   O  O91  1  0.749467  0.544961  0.509935  0  .  1
   O  O92  1  0.766384  0.055946  0.349652  0  .  1
   O  O93  1  0.627579  0.496418  0.051103  0  .  1
   O  O94  1  0.127579  0.003582  0.448897  0  .  1
   O  O95  1  0.936457  0.357609  0.895999  0  .  1
   O  O96  1  0.924487  0.619303  0.978527  0  .  1
   O  O97  1  0.783899  0.125902  0.851794  0  .  1
   O  O98  1  0.480182  0.568716  0.749900  0  .  1
   O  O99  1  0.650672  0.350159  0.553888  0  .  1
   O  O100  1  0.424487  0.880697  0.521473  0  .  1
   O  O101  1  0.886794  0.775392  0.480209  0  .  1
   O  O102  1  0.349328  0.649841  0.446112  0  .  1
   O  O103  1  0.994023  0.514496  0.607261  0  .  1
   O  O104  1  0.501523  0.559119  0.613854  0  .  1
   O  O105  1  0.529970  0.070698  0.247576  0  .  1
   O  O106  1  0.248995  0.187381  0.406234  0  .  1
   O  O107  1  0.005977  0.485504  0.392739  0  .  1
   O  O108  1  0.278288  0.239594  0.188342  0  .  1
   O  O109  1  0.283899  0.374098  0.648206  0  .  1
   O  O110  1  0.314849  0.225822  0.718800  0  .  1
   O  O111  1  0.519818  0.431284  0.250100  0  .  1
   O  O112  1  0.970030  0.570698  0.747576  0  .  1
 
