#\#CIF1.1
##########################################################################
#               Crystallographic Information Format file 
#               Produced by PyCifRW module
# 
#  This is a CIF file.  CIF has been adopted by the International
#  Union of Crystallography as the standard for data archiving and 
#  transmission.
#
#  For information on this file format, follow the CIF links at
#  http://www.iucr.org
##########################################################################

data_KTi6O12
_symmetry_space_group_name_H-M          'P 1'
_cell_length_a                          8.54028327938
_cell_length_b                          8.54028327938
_cell_length_c                          8.54028327938
_cell_angle_alpha                       105.930383598
_cell_angle_beta                        116.811817372
_cell_angle_gamma                       105.930383598
_chemical_name_systematic               'Generated by pymatgen'
_symmetry_Int_Tables_number             1
_chemical_formula_structural            KTi6O12
_chemical_formula_sum                   'K2 Ti12 O24'
_cell_volume                            473.532164872
_cell_formula_units_Z                   2
loop_
  _symmetry_equiv_pos_site_id
  _symmetry_equiv_pos_as_xyz
   1  'x, y, z'
 
loop_
  _atom_site_type_symbol
  _atom_site_label
  _atom_site_symmetry_multiplicity
  _atom_site_fract_x
  _atom_site_fract_y
  _atom_site_fract_z
  _atom_site_attached_hydrogens
  _atom_site_B_iso_or_equiv
  _atom_site_occupancy
   K  K1  1  0.893758  0.000000  0.893758  0  .  1
   K  K2  1  0.439576  0.000000  0.439576  0  .  1
   Ti  Ti3  1  0.834865  0.818416  0.316884  0  .  1
   Ti  Ti4  1  0.983272  0.483521  0.165876  0  .  1
   Ti  Ti5  1  0.350061  0.516479  0.167457  0  .  1
   Ti  Ti6  1  0.682355  0.516479  0.499751  0  .  1
   Ti  Ti7  1  0.833582  0.182604  0.350061  0  .  1
   Ti  Ti8  1  0.498468  0.181584  0.016449  0  .  1
   Ti  Ti9  1  0.499751  0.817396  0.983272  0  .  1
   Ti  Ti10  1  0.167457  0.817396  0.650979  0  .  1
   Ti  Ti11  1  0.316884  0.482019  0.498468  0  .  1
   Ti  Ti12  1  0.650979  0.483521  0.833582  0  .  1
   Ti  Ti13  1  0.016449  0.517981  0.834865  0  .  1
   Ti  Ti14  1  0.165876  0.182604  0.682355  0  .  1
   O  O15  1  0.794653  0.951122  0.155830  0  .  1
   O  O16  1  0.832200  0.625806  0.126939  0  .  1
   O  O17  1  0.539634  0.706121  0.166223  0  .  1
   O  O18  1  0.873231  0.706121  0.499820  0  .  1
   O  O19  1  0.793699  0.293879  0.167110  0  .  1
   O  O20  1  0.843531  0.638823  0.794653  0  .  1
   O  O21  1  0.510911  0.639797  0.462219  0  .  1
   O  O22  1  0.177504  0.638823  0.128625  0  .  1
   O  O23  1  0.501134  0.374194  0.206394  0  .  1
   O  O24  1  0.833513  0.373411  0.539634  0  .  1
   O  O25  1  0.462219  0.951308  0.822422  0  .  1
   O  O26  1  0.128625  0.951122  0.489802  0  .  1
   O  O27  1  0.871114  0.048692  0.510911  0  .  1
   O  O28  1  0.538681  0.048878  0.177504  0  .  1
   O  O29  1  0.166223  0.626589  0.460102  0  .  1
   O  O30  1  0.499820  0.626589  0.793699  0  .  1
   O  O31  1  0.822422  0.360203  0.871114  0  .  1
   O  O32  1  0.155830  0.361177  0.204708  0  .  1
   O  O33  1  0.489802  0.361177  0.538681  0  .  1
   O  O34  1  0.206394  0.705260  0.832200  0  .  1
   O  O35  1  0.126939  0.294740  0.501134  0  .  1
   O  O36  1  0.460102  0.293879  0.833513  0  .  1
   O  O37  1  0.167110  0.373411  0.873231  0  .  1
   O  O38  1  0.204708  0.048878  0.843531  0  .  1
 
