#\#CIF1.1
##########################################################################
#               Crystallographic Information Format file 
#               Produced by PyCifRW module
# 
#  This is a CIF file.  CIF has been adopted by the International
#  Union of Crystallography as the standard for data archiving and 
#  transmission.
#
#  For information on this file format, follow the CIF links at
#  http://www.iucr.org
##########################################################################

data_KV12O30
_symmetry_space_group_name_H-M          'P 1'
_cell_length_a                          10.8761261804
_cell_length_b                          10.8762651528
_cell_length_c                          15.2909898
_cell_angle_alpha                       90.0
_cell_angle_beta                        90.0
_cell_angle_gamma                       120.000459537
_chemical_name_systematic               'Generated by pymatgen'
_symmetry_Int_Tables_number             1
_chemical_formula_structural            KV12O30
_chemical_formula_sum                   'K2 V24 O60'
_cell_volume                            1566.45615464
_cell_formula_units_Z                   2
loop_
  _symmetry_equiv_pos_site_id
  _symmetry_equiv_pos_as_xyz
   1  'x, y, z'
 
loop_
  _atom_site_type_symbol
  _atom_site_label
  _atom_site_symmetry_multiplicity
  _atom_site_fract_x
  _atom_site_fract_y
  _atom_site_fract_z
  _atom_site_attached_hydrogens
  _atom_site_B_iso_or_equiv
  _atom_site_occupancy
   K  K1  1  0.000000  0.000000  0.250004  0  .  1
   K  K2  1  0.000000  0.000000  0.749996  0  .  1
   V  V3  1  0.119650  0.754539  0.615742  0  .  1
   V  V4  1  0.119650  0.754539  0.384258  0  .  1
   V  V5  1  0.119652  0.365110  0.115746  0  .  1
   V  V6  1  0.119652  0.365110  0.884254  0  .  1
   V  V7  1  0.880348  0.634890  0.115746  0  .  1
   V  V8  1  0.880348  0.634890  0.884254  0  .  1
   V  V9  1  0.880350  0.245461  0.384258  0  .  1
   V  V10  1  0.880350  0.245461  0.615742  0  .  1
   V  V11  1  0.245459  0.880357  0.115740  0  .  1
   V  V12  1  0.245459  0.880357  0.884260  0  .  1
   V  V13  1  0.245452  0.365100  0.615741  0  .  1
   V  V14  1  0.245452  0.365100  0.384259  0  .  1
   V  V15  1  0.634896  0.880349  0.384255  0  .  1
   V  V16  1  0.634896  0.880349  0.615745  0  .  1
   V  V17  1  0.365107  0.245452  0.115741  0  .  1
   V  V18  1  0.365107  0.245452  0.884259  0  .  1
   V  V19  1  0.634893  0.754548  0.115741  0  .  1
   V  V20  1  0.634893  0.754548  0.884259  0  .  1
   V  V21  1  0.365104  0.119651  0.615745  0  .  1
   V  V22  1  0.365104  0.119651  0.384255  0  .  1
   V  V23  1  0.754548  0.634900  0.384259  0  .  1
   V  V24  1  0.754548  0.634900  0.615741  0  .  1
   V  V25  1  0.754541  0.119643  0.115740  0  .  1
   V  V26  1  0.754541  0.119643  0.884260  0  .  1
   O  O27  1  0.059010  0.772055  0.143827  0  .  1
   O  O28  1  0.059010  0.772055  0.856173  0  .  1
   O  O29  1  0.227948  0.940990  0.643830  0  .  1
   O  O30  1  0.227948  0.940990  0.356170  0  .  1
   O  O31  1  0.135063  0.730796  0.500000  0  .  1
   O  O32  1  0.269202  0.864940  0.000000  0  .  1
   O  O33  1  0.162144  0.654259  0.330222  0  .  1
   O  O34  1  0.162144  0.654259  0.669778  0  .  1
   O  O35  1  0.162141  0.507891  0.169778  0  .  1
   O  O36  1  0.162141  0.507891  0.830222  0  .  1
   O  O37  1  0.059004  0.286956  0.643831  0  .  1
   O  O38  1  0.059004  0.286956  0.356169  0  .  1
   O  O39  1  0.345751  0.837858  0.169778  0  .  1
   O  O40  1  0.345751  0.837858  0.830222  0  .  1
   O  O41  1  0.135063  0.404265  0.000000  0  .  1
   O  O42  1  0.269202  0.404265  0.500000  0  .  1
   O  O43  1  0.492100  0.837854  0.669780  0  .  1
   O  O44  1  0.492100  0.837854  0.330220  0  .  1
   O  O45  1  0.227952  0.286954  0.143827  0  .  1
   O  O46  1  0.227952  0.286954  0.856173  0  .  1
   O  O47  1  0.345747  0.507892  0.669780  0  .  1
   O  O48  1  0.345747  0.507892  0.330220  0  .  1
   O  O49  1  0.492100  0.654245  0.169781  0  .  1
   O  O50  1  0.492100  0.654245  0.830219  0  .  1
   O  O51  1  0.286956  0.227952  0.643829  0  .  1
   O  O52  1  0.286956  0.227952  0.356171  0  .  1
   O  O53  1  0.595736  0.864938  0.500000  0  .  1
   O  O54  1  0.595734  0.730797  0.000000  0  .  1
   O  O55  1  0.286956  0.059005  0.143827  0  .  1
   O  O56  1  0.286956  0.059005  0.856173  0  .  1
   O  O57  1  0.713044  0.940995  0.143827  0  .  1
   O  O58  1  0.713044  0.940995  0.856173  0  .  1
   O  O59  1  0.404266  0.269203  0.000000  0  .  1
   O  O60  1  0.404264  0.135062  0.500000  0  .  1
   O  O61  1  0.713044  0.772048  0.356171  0  .  1
   O  O62  1  0.713044  0.772048  0.643829  0  .  1
   O  O63  1  0.507900  0.345755  0.169781  0  .  1
   O  O64  1  0.507900  0.345755  0.830219  0  .  1
   O  O65  1  0.654253  0.492108  0.330220  0  .  1
   O  O66  1  0.654253  0.492108  0.669780  0  .  1
   O  O67  1  0.772048  0.713046  0.143827  0  .  1
   O  O68  1  0.772048  0.713046  0.856173  0  .  1
   O  O69  1  0.507900  0.162146  0.330220  0  .  1
   O  O70  1  0.507900  0.162146  0.669780  0  .  1
   O  O71  1  0.730798  0.595735  0.500000  0  .  1
   O  O72  1  0.864937  0.595735  0.000000  0  .  1
   O  O73  1  0.654249  0.162142  0.169778  0  .  1
   O  O74  1  0.654249  0.162142  0.830222  0  .  1
   O  O75  1  0.940996  0.713044  0.356169  0  .  1
   O  O76  1  0.940996  0.713044  0.643831  0  .  1
   O  O77  1  0.837859  0.492109  0.830222  0  .  1
   O  O78  1  0.837859  0.492109  0.169778  0  .  1
   O  O79  1  0.837856  0.345741  0.330222  0  .  1
   O  O80  1  0.837856  0.345741  0.669778  0  .  1
   O  O81  1  0.730798  0.135060  0.000000  0  .  1
   O  O82  1  0.864937  0.269204  0.500000  0  .  1
   O  O83  1  0.772052  0.059010  0.356170  0  .  1
   O  O84  1  0.772052  0.059010  0.643830  0  .  1
   O  O85  1  0.940990  0.227945  0.143827  0  .  1
   O  O86  1  0.940990  0.227945  0.856173  0  .  1
 
