#\#CIF1.1
##########################################################################
#               Crystallographic Information Format file 
#               Produced by PyCifRW module
# 
#  This is a CIF file.  CIF has been adopted by the International
#  Union of Crystallography as the standard for data archiving and 
#  transmission.
#
#  For information on this file format, follow the CIF links at
#  http://www.iucr.org
##########################################################################

data_KV2CrO7
_symmetry_space_group_name_H-M          'P 1'
_cell_length_a                          4.93412929
_cell_length_b                          6.97864560056
_cell_length_c                          8.36943478914
_cell_angle_alpha                       101.719056391
_cell_angle_beta                        90.0
_cell_angle_gamma                       90.0
_chemical_name_systematic               'Generated by pymatgen'
_symmetry_Int_Tables_number             1
_chemical_formula_structural            KV2CrO7
_chemical_formula_sum                   'K2 V4 Cr2 O14'
_cell_volume                            282.182048896
_cell_formula_units_Z                   2
loop_
  _symmetry_equiv_pos_site_id
  _symmetry_equiv_pos_as_xyz
   1  'x, y, z'
 
loop_
  _atom_site_type_symbol
  _atom_site_label
  _atom_site_symmetry_multiplicity
  _atom_site_fract_x
  _atom_site_fract_y
  _atom_site_fract_z
  _atom_site_attached_hydrogens
  _atom_site_B_iso_or_equiv
  _atom_site_occupancy
   K  K1  1  0.601501  0.750000  0.500000  0  .  1
   K  K2  1  0.398499  0.250000  0.500000  0  .  1
   V  V3  1  0.997496  0.876624  0.173274  0  .  1
   V  V4  1  0.002504  0.123376  0.826726  0  .  1
   V  V5  1  0.002504  0.376624  0.173274  0  .  1
   V  V6  1  0.997496  0.623376  0.826726  0  .  1
   Cr  Cr7  1  0.500000  0.500000  0.000000  0  .  1
   Cr  Cr8  1  0.500000  0.000000  0.000000  0  .  1
   O  O9  1  0.677630  0.980967  0.209604  0  .  1
   O  O10  1  0.870677  0.117321  0.645748  0  .  1
   O  O11  1  0.841412  0.887154  0.884858  0  .  1
   O  O12  1  0.870677  0.382679  0.354252  0  .  1
   O  O13  1  0.129323  0.882679  0.354252  0  .  1
   O  O14  1  0.322370  0.480967  0.209604  0  .  1
   O  O15  1  0.158588  0.112846  0.115142  0  .  1
   O  O16  1  0.841412  0.612846  0.115142  0  .  1
   O  O17  1  0.716288  0.250000  0.000000  0  .  1
   O  O18  1  0.283712  0.750000  0.000000  0  .  1
   O  O19  1  0.677630  0.519033  0.790396  0  .  1
   O  O20  1  0.322370  0.019033  0.790396  0  .  1
   O  O21  1  0.129323  0.617321  0.645748  0  .  1
   O  O22  1  0.158588  0.387154  0.884858  0  .  1
 
