#\#CIF1.1
##########################################################################
#               Crystallographic Information Format file 
#               Produced by PyCifRW module
# 
#  This is a CIF file.  CIF has been adopted by the International
#  Union of Crystallography as the standard for data archiving and 
#  transmission.
#
#  For information on this file format, follow the CIF links at
#  http://www.iucr.org
##########################################################################

data_KV4O10
_symmetry_space_group_name_H-M          'P 1'
_cell_length_a                          3.70835267
_cell_length_b                          6.09556946136
_cell_length_c                          20.58032214
_cell_angle_alpha                       90.0
_cell_angle_beta                        90.0
_cell_angle_gamma                       107.709094308
_chemical_name_systematic               'Generated by pymatgen'
_symmetry_Int_Tables_number             1
_chemical_formula_structural            KV4O10
_chemical_formula_sum                   'K2 V8 O20'
_cell_volume                            443.163601134
_cell_formula_units_Z                   2
loop_
  _symmetry_equiv_pos_site_id
  _symmetry_equiv_pos_as_xyz
   1  'x, y, z'
 
loop_
  _atom_site_type_symbol
  _atom_site_label
  _atom_site_symmetry_multiplicity
  _atom_site_fract_x
  _atom_site_fract_y
  _atom_site_fract_z
  _atom_site_attached_hydrogens
  _atom_site_B_iso_or_equiv
  _atom_site_occupancy
   K  K1  1  0.395781  0.791564  0.250000  0  .  1
   K  K2  1  0.604219  0.208436  0.750000  0  .  1
   V  V3  1  0.228189  0.456379  0.081104  0  .  1
   V  V4  1  0.228189  0.456379  0.418896  0  .  1
   V  V5  1  0.066769  0.133537  0.578542  0  .  1
   V  V6  1  0.066769  0.133537  0.921458  0  .  1
   V  V7  1  0.933231  0.866463  0.078542  0  .  1
   V  V8  1  0.933231  0.866463  0.421458  0  .  1
   V  V9  1  0.771811  0.543621  0.581104  0  .  1
   V  V10  1  0.771811  0.543621  0.918896  0  .  1
   O  O11  1  0.081082  0.162164  0.048566  0  .  1
   O  O12  1  0.213455  0.426910  0.340197  0  .  1
   O  O13  1  0.213455  0.426910  0.159803  0  .  1
   O  O14  1  0.081082  0.162164  0.451434  0  .  1
   O  O15  1  0.398929  0.797858  0.063473  0  .  1
   O  O16  1  0.050771  0.101542  0.657884  0  .  1
   O  O17  1  0.240234  0.480467  0.560685  0  .  1
   O  O18  1  0.050771  0.101542  0.842116  0  .  1
   O  O19  1  0.240234  0.480467  0.939315  0  .  1
   O  O20  1  0.398929  0.797858  0.436527  0  .  1
   O  O21  1  0.759766  0.519533  0.060685  0  .  1
   O  O22  1  0.949230  0.898458  0.157884  0  .  1
   O  O23  1  0.759766  0.519533  0.439315  0  .  1
   O  O24  1  0.786545  0.573090  0.840197  0  .  1
   O  O25  1  0.949230  0.898458  0.342116  0  .  1
   O  O26  1  0.786545  0.573090  0.659803  0  .  1
   O  O27  1  0.918918  0.837836  0.548566  0  .  1
   O  O28  1  0.918918  0.837836  0.951434  0  .  1
   O  O29  1  0.601071  0.202142  0.563473  0  .  1
   O  O30  1  0.601071  0.202142  0.936527  0  .  1
 
