#\#CIF1.1
##########################################################################
#               Crystallographic Information Format file 
#               Produced by PyCifRW module
# 
#  This is a CIF file.  CIF has been adopted by the International
#  Union of Crystallography as the standard for data archiving and 
#  transmission.
#
#  For information on this file format, follow the CIF links at
#  http://www.iucr.org
##########################################################################

data_KV4O8
_symmetry_space_group_name_H-M          'P 1'
_cell_length_a                          2.92082820423
_cell_length_b                          7.38271871356
_cell_length_c                          7.38271870861
_cell_angle_alpha                       87.757394284
_cell_angle_beta                        78.5907721008
_cell_angle_gamma                       78.5907721453
_chemical_name_systematic               'Generated by pymatgen'
_symmetry_Int_Tables_number             1
_chemical_formula_structural            KV4O8
_chemical_formula_sum                   'K1 V4 O8'
_cell_volume                            152.968815013
_cell_formula_units_Z                   1
loop_
  _symmetry_equiv_pos_site_id
  _symmetry_equiv_pos_as_xyz
   1  'x, y, z'
 
loop_
  _atom_site_type_symbol
  _atom_site_label
  _atom_site_symmetry_multiplicity
  _atom_site_fract_x
  _atom_site_fract_y
  _atom_site_fract_z
  _atom_site_attached_hydrogens
  _atom_site_B_iso_or_equiv
  _atom_site_occupancy
   O  O1  1  0.845216  0.954485  0.355087  0  .  1
   O  O2  1  0.200303  0.644912  0.954484  0  .  1
   O  O3  1  0.799696  0.355088  0.045515  0  .  1
   O  O4  1  0.154788  0.045516  0.644912  0  .  1
   O  O5  1  0.460231  0.374565  0.704973  0  .  1
   O  O6  1  0.539769  0.625435  0.295027  0  .  1
   O  O7  1  0.165204  0.295027  0.374565  0  .  1
   O  O8  1  0.834796  0.704973  0.625434  0  .  1
   K  K9  1  0.499999  0.000000  0.999999  0  .  1
   V  V10  1  0.832211  0.518996  0.816582  0  .  1
   V  V11  1  0.167790  0.481002  0.183418  0  .  1
   V  V12  1  0.351208  0.816582  0.481003  0  .  1
   V  V13  1  0.648792  0.183418  0.518997  0  .  1
 
