#\#CIF1.1
##########################################################################
#               Crystallographic Information Format file 
#               Produced by PyCifRW module
# 
#  This is a CIF file.  CIF has been adopted by the International
#  Union of Crystallography as the standard for data archiving and 
#  transmission.
#
#  For information on this file format, follow the CIF links at
#  http://www.iucr.org
##########################################################################

data_KV6O11
_symmetry_space_group_name_H-M          'P 1'
_cell_length_a                          5.88922395
_cell_length_b                          5.88922432918
_cell_length_c                          13.6230746
_cell_angle_alpha                       90.0
_cell_angle_beta                        90.0
_cell_angle_gamma                       119.999997814
_chemical_name_systematic               'Generated by pymatgen'
_symmetry_Int_Tables_number             1
_chemical_formula_structural            KV6O11
_chemical_formula_sum                   'K2 V12 O22'
_cell_volume                            409.187108949
_cell_formula_units_Z                   2
loop_
  _symmetry_equiv_pos_site_id
  _symmetry_equiv_pos_as_xyz
   1  'x, y, z'
 
loop_
  _atom_site_type_symbol
  _atom_site_label
  _atom_site_symmetry_multiplicity
  _atom_site_fract_x
  _atom_site_fract_y
  _atom_site_fract_z
  _atom_site_attached_hydrogens
  _atom_site_B_iso_or_equiv
  _atom_site_occupancy
   O  O1  1  0.333333  0.666666  0.917471  0  .  1
   O  O2  1  0.666666  0.333334  0.417472  0  .  1
   O  O3  1  0.666666  0.333334  0.082528  0  .  1
   O  O4  1  0.333333  0.666666  0.582529  0  .  1
   O  O5  1  0.852411  0.704824  0.250000  0  .  1
   O  O6  1  0.147589  0.852412  0.750000  0  .  1
   O  O7  1  0.704823  0.852412  0.750000  0  .  1
   O  O8  1  0.295176  0.147588  0.250000  0  .  1
   O  O9  1  0.852412  0.147588  0.250000  0  .  1
   O  O10  1  0.147588  0.295176  0.750000  0  .  1
   O  O11  1  0.173746  0.826254  0.426384  0  .  1
   O  O12  1  0.173746  0.347492  0.426384  0  .  1
   O  O13  1  0.652507  0.826254  0.426384  0  .  1
   O  O14  1  0.347493  0.173747  0.926384  0  .  1
   O  O15  1  0.173746  0.347492  0.073616  0  .  1
   O  O16  1  0.826255  0.173747  0.573616  0  .  1
   O  O17  1  0.347493  0.173747  0.573616  0  .  1
   O  O18  1  0.652507  0.826254  0.073616  0  .  1
   O  O19  1  0.826254  0.652508  0.573616  0  .  1
   O  O20  1  0.826254  0.652508  0.926384  0  .  1
   O  O21  1  0.826255  0.173747  0.926384  0  .  1
   O  O22  1  0.173746  0.826254  0.073616  0  .  1
   K  K23  1  0.333333  0.666666  0.250000  0  .  1
   K  K24  1  0.666666  0.333334  0.750000  0  .  1
   V  V25  1  0.500001  0.500000  0.000000  0  .  1
   V  V26  1  0.000000  0.000000  0.851375  0  .  1
   V  V27  1  0.000000  0.000000  0.648625  0  .  1
   V  V28  1  0.000000  0.000000  0.148625  0  .  1
   V  V29  1  0.499999  0.000000  0.500000  0  .  1
   V  V30  1  0.000000  0.000000  0.351375  0  .  1
   V  V31  1  0.999999  0.500000  0.000000  0  .  1
   V  V32  1  0.999999  0.500000  0.500000  0  .  1
   V  V33  1  0.500001  0.500000  0.500000  0  .  1
   V  V34  1  0.499999  0.000000  0.000000  0  .  1
   V  V35  1  0.333333  0.666666  0.750000  0  .  1
   V  V36  1  0.666666  0.333334  0.250000  0  .  1
 
