#\#CIF1.1
##########################################################################
#               Crystallographic Information Format file 
#               Produced by PyCifRW module
# 
#  This is a CIF file.  CIF has been adopted by the International
#  Union of Crystallography as the standard for data archiving and 
#  transmission.
#
#  For information on this file format, follow the CIF links at
#  http://www.iucr.org
##########################################################################

data_KVO2
_symmetry_space_group_name_H-M          'P 1'
_cell_length_a                          3.09008158
_cell_length_b                          3.15284818805
_cell_length_c                          6.19994287175
_cell_angle_alpha                       88.8395417573
_cell_angle_beta                        90.0
_cell_angle_gamma                       119.343608127
_chemical_name_systematic               'Generated by pymatgen'
_symmetry_Int_Tables_number             1
_chemical_formula_structural            KVO2
_chemical_formula_sum                   'K1 V1 O2'
_cell_volume                            52.6391385882
_cell_formula_units_Z                   1
loop_
  _symmetry_equiv_pos_site_id
  _symmetry_equiv_pos_as_xyz
   1  'x, y, z'
 
loop_
  _atom_site_type_symbol
  _atom_site_label
  _atom_site_symmetry_multiplicity
  _atom_site_fract_x
  _atom_site_fract_y
  _atom_site_fract_z
  _atom_site_attached_hydrogens
  _atom_site_B_iso_or_equiv
  _atom_site_occupancy
   K  K1  1  0.000007  0.000000  0.500000  0  .  1
   V  V2  1  0.999997  0.000000  0.000000  0  .  1
   O  O3  1  0.333620  0.667254  0.173021  0  .  1
   O  O4  1  0.666366  0.332746  0.826979  0  .  1
 
