#\#CIF1.1
##########################################################################
#               Crystallographic Information Format file 
#               Produced by PyCifRW module
# 
#  This is a CIF file.  CIF has been adopted by the International
#  Union of Crystallography as the standard for data archiving and 
#  transmission.
#
#  For information on this file format, follow the CIF links at
#  http://www.iucr.org
##########################################################################

data_KVO3
_symmetry_space_group_name_H-M          'P 1'
_cell_length_a                          5.37268036
_cell_length_b                          5.78657077
_cell_length_c                          10.91278431
_cell_angle_alpha                       90.0
_cell_angle_beta                        90.0
_cell_angle_gamma                       90.0
_chemical_name_systematic               'Generated by pymatgen'
_symmetry_Int_Tables_number             1
_chemical_formula_structural            KVO3
_chemical_formula_sum                   'K4 V4 O12'
_cell_volume                            339.271863357
_cell_formula_units_Z                   4
loop_
  _symmetry_equiv_pos_site_id
  _symmetry_equiv_pos_as_xyz
   1  'x, y, z'
 
loop_
  _atom_site_type_symbol
  _atom_site_label
  _atom_site_symmetry_multiplicity
  _atom_site_fract_x
  _atom_site_fract_y
  _atom_site_fract_z
  _atom_site_attached_hydrogens
  _atom_site_B_iso_or_equiv
  _atom_site_occupancy
   O  O1  1  0.381944  0.750000  0.476262  0  .  1
   O  O2  1  0.381944  0.250000  0.023738  0  .  1
   O  O3  1  0.618056  0.250000  0.523738  0  .  1
   O  O4  1  0.618056  0.750000  0.976262  0  .  1
   O  O5  1  0.829717  0.750000  0.352734  0  .  1
   O  O6  1  0.829717  0.250000  0.147266  0  .  1
   O  O7  1  0.170283  0.250000  0.647266  0  .  1
   O  O8  1  0.170283  0.750000  0.852734  0  .  1
   O  O9  1  0.590300  0.000000  0.750000  0  .  1
   O  O10  1  0.409700  0.500000  0.250000  0  .  1
   O  O11  1  0.409700  0.000000  0.250000  0  .  1
   O  O12  1  0.590300  0.500000  0.750000  0  .  1
   K  K13  1  0.057692  0.750000  0.105220  0  .  1
   K  K14  1  0.057692  0.250000  0.394780  0  .  1
   K  K15  1  0.942308  0.250000  0.894780  0  .  1
   K  K16  1  0.942308  0.750000  0.605220  0  .  1
   V  V17  1  0.482326  0.750000  0.838797  0  .  1
   V  V18  1  0.482326  0.250000  0.661203  0  .  1
   V  V19  1  0.517674  0.250000  0.161203  0  .  1
   V  V20  1  0.517674  0.750000  0.338797  0  .  1
 
