#\#CIF1.1
##########################################################################
#               Crystallographic Information Format file 
#               Produced by PyCifRW module
# 
#  This is a CIF file.  CIF has been adopted by the International
#  Union of Crystallography as the standard for data archiving and 
#  transmission.
#
#  For information on this file format, follow the CIF links at
#  http://www.iucr.org
##########################################################################

data_La(AlZn)2
_symmetry_space_group_name_H-M          'P 1'
_cell_length_a                          4.26112832914
_cell_length_b                          4.26112832943
_cell_length_c                          6.29850934498
_cell_angle_alpha                       109.771199092
_cell_angle_beta                        109.771199053
_cell_angle_gamma                       89.9999982848
_chemical_name_systematic               'Generated by pymatgen'
_symmetry_Int_Tables_number             1
_chemical_formula_structural            La(AlZn)2
_chemical_formula_sum                   'La1 Al2 Zn2'
_cell_volume                            100.428615552
_cell_formula_units_Z                   1
loop_
  _symmetry_equiv_pos_site_id
  _symmetry_equiv_pos_as_xyz
   1  'x, y, z'
 
loop_
  _atom_site_type_symbol
  _atom_site_label
  _atom_site_symmetry_multiplicity
  _atom_site_fract_x
  _atom_site_fract_y
  _atom_site_fract_z
  _atom_site_attached_hydrogens
  _atom_site_B_iso_or_equiv
  _atom_site_occupancy
   La  La1  1  0.000000  0.000000  0.000000  0  .  1
   Al  Al2  1  0.750000  0.250000  0.500000  0  .  1
   Al  Al3  1  0.250000  0.750000  0.500000  0  .  1
   Zn  Zn4  1  0.613216  0.613216  0.226431  0  .  1
   Zn  Zn5  1  0.386784  0.386784  0.773569  0  .  1
 
