#\#CIF1.1
##########################################################################
#               Crystallographic Information Format file 
#               Produced by PyCifRW module
# 
#  This is a CIF file.  CIF has been adopted by the International
#  Union of Crystallography as the standard for data archiving and 
#  transmission.
#
#  For information on this file format, follow the CIF links at
#  http://www.iucr.org
##########################################################################

data_La(CoP)2
_symmetry_space_group_name_H-M          'P 1'
_cell_length_a                          3.73257652221
_cell_length_b                          3.73257681748
_cell_length_c                          6.28409680117
_cell_angle_alpha                       106.840344679
_cell_angle_beta                        106.84034978
_cell_angle_gamma                       90.1874206494
_chemical_name_systematic               'Generated by pymatgen'
_symmetry_Int_Tables_number             1
_chemical_formula_structural            La(CoP)2
_chemical_formula_sum                   'La1 Co2 P2'
_cell_volume                            79.8385578039
_cell_formula_units_Z                   1
loop_
  _symmetry_equiv_pos_site_id
  _symmetry_equiv_pos_as_xyz
   1  'x, y, z'
 
loop_
  _atom_site_type_symbol
  _atom_site_label
  _atom_site_symmetry_multiplicity
  _atom_site_fract_x
  _atom_site_fract_y
  _atom_site_fract_z
  _atom_site_attached_hydrogens
  _atom_site_B_iso_or_equiv
  _atom_site_occupancy
   La  La1  1  0.000000  0.000000  0.000000  0  .  1
   Co  Co2  1  0.250935  0.749065  0.500000  0  .  1
   Co  Co3  1  0.749065  0.250935  0.500000  0  .  1
   P  P4  1  0.353103  0.353103  0.708321  0  .  1
   P  P5  1  0.646897  0.646897  0.291679  0  .  1
 
