#\#CIF1.1
##########################################################################
#               Crystallographic Information Format file 
#               Produced by PyCifRW module
# 
#  This is a CIF file.  CIF has been adopted by the International
#  Union of Crystallography as the standard for data archiving and 
#  transmission.
#
#  For information on this file format, follow the CIF links at
#  http://www.iucr.org
##########################################################################

data_La(FeP)2
_symmetry_space_group_name_H-M          'P 1'
_cell_length_a                          3.81866558598
_cell_length_b                          3.81866558981
_cell_length_c                          6.09192339078
_cell_angle_alpha                       108.265478313
_cell_angle_beta                        108.265478347
_cell_angle_gamma                       90.0000000677
_chemical_name_systematic               'Generated by pymatgen'
_symmetry_Int_Tables_number             1
_chemical_formula_structural            La(FeP)2
_chemical_formula_sum                   'La1 Fe2 P2'
_cell_volume                            79.6306362119
_cell_formula_units_Z                   1
loop_
  _symmetry_equiv_pos_site_id
  _symmetry_equiv_pos_as_xyz
   1  'x, y, z'
 
loop_
  _atom_site_type_symbol
  _atom_site_label
  _atom_site_symmetry_multiplicity
  _atom_site_fract_x
  _atom_site_fract_y
  _atom_site_fract_z
  _atom_site_attached_hydrogens
  _atom_site_B_iso_or_equiv
  _atom_site_occupancy
   P  P1  1  0.649464  0.649464  0.298929  0  .  1
   P  P2  1  0.350536  0.350536  0.701071  0  .  1
   Fe  Fe3  1  0.250000  0.750000  0.500000  0  .  1
   Fe  Fe4  1  0.750000  0.250000  0.500000  0  .  1
   La  La5  1  0.000000  0.000000  0.000000  0  .  1
 
