#\#CIF1.1
##########################################################################
#               Crystallographic Information Format file 
#               Produced by PyCifRW module
# 
#  This is a CIF file.  CIF has been adopted by the International
#  Union of Crystallography as the standard for data archiving and 
#  transmission.
#
#  For information on this file format, follow the CIF links at
#  http://www.iucr.org
##########################################################################

data_La
_symmetry_space_group_name_H-M          'P 1'
_cell_length_a                          3.77119101
_cell_length_b                          3.77119101494
_cell_length_c                          12.06493159
_cell_angle_alpha                       90.0
_cell_angle_beta                        90.0
_cell_angle_gamma                       120.000000044
_chemical_name_systematic               'Generated by pymatgen'
_symmetry_Int_Tables_number             1
_chemical_formula_structural            La
_chemical_formula_sum                   La4
_cell_volume                            148.597860172
_cell_formula_units_Z                   4
loop_
  _symmetry_equiv_pos_site_id
  _symmetry_equiv_pos_as_xyz
   1  'x, y, z'
 
loop_
  _atom_site_type_symbol
  _atom_site_label
  _atom_site_symmetry_multiplicity
  _atom_site_fract_x
  _atom_site_fract_y
  _atom_site_fract_z
  _atom_site_attached_hydrogens
  _atom_site_B_iso_or_equiv
  _atom_site_occupancy
   La  La1  1  0.000000  0.000000  0.000000  0  .  1
   La  La2  1  0.000000  0.000000  0.500000  0  .  1
   La  La3  1  0.333333  0.666667  0.250000  0  .  1
   La  La4  1  0.666667  0.333333  0.750000  0  .  1
 
