#\#CIF1.1
##########################################################################
#               Crystallographic Information Format file 
#               Produced by PyCifRW module
# 
#  This is a CIF file.  CIF has been adopted by the International
#  Union of Crystallography as the standard for data archiving and 
#  transmission.
#
#  For information on this file format, follow the CIF links at
#  http://www.iucr.org
##########################################################################

data_La11Mn12O36
_symmetry_space_group_name_H-M          'P 1'
_cell_length_a                          9.6603646954
_cell_length_b                          9.66066360591
_cell_length_c                          9.53453504571
_cell_angle_alpha                       99.7234780028
_cell_angle_beta                        109.742898509
_cell_angle_gamma                       60.0010600134
_chemical_name_systematic               'Generated by pymatgen'
_symmetry_Int_Tables_number             1
_chemical_formula_structural            La11Mn12O36
_chemical_formula_sum                   'La11 Mn12 O36'
_cell_volume                            725.31297329
_cell_formula_units_Z                   1
loop_
  _symmetry_equiv_pos_site_id
  _symmetry_equiv_pos_as_xyz
   1  'x, y, z'
 
loop_
  _atom_site_type_symbol
  _atom_site_label
  _atom_site_symmetry_multiplicity
  _atom_site_fract_x
  _atom_site_fract_y
  _atom_site_fract_z
  _atom_site_attached_hydrogens
  _atom_site_B_iso_or_equiv
  _atom_site_occupancy
   La  La1  1  0.956223  0.325149  0.865453  0  .  1
   La  La2  1  0.795486  0.673743  0.383821  0  .  1
   La  La3  1  0.541551  0.666850  0.625006  0  .  1
   La  La4  1  0.629331  0.000950  0.867888  0  .  1
   La  La5  1  0.280654  0.673786  0.866003  0  .  1
   La  La6  1  0.708642  0.332696  0.125022  0  .  1
   La  La7  1  0.468524  0.325201  0.384403  0  .  1
   La  La8  1  0.208432  0.333178  0.625059  0  .  1
   La  La9  1  0.041066  0.667842  0.124980  0  .  1
   La  La10  1  0.375074  0.999862  0.125015  0  .  1
   La  La11  1  0.119664  0.000977  0.381942  0  .  1
   Mn  Mn12  1  0.917582  0.668390  0.749698  0  .  1
   Mn  Mn13  1  0.834271  0.330656  0.500181  0  .  1
   Mn  Mn14  1  0.585037  0.330664  0.749782  0  .  1
   Mn  Mn15  1  0.666194  0.666817  0.999250  0  .  1
   Mn  Mn16  1  0.751263  0.999825  0.253350  0  .  1
   Mn  Mn17  1  0.416992  0.666815  0.250723  0  .  1
   Mn  Mn18  1  0.502313  0.000942  0.500669  0  .  1
   Mn  Mn19  1  0.164002  0.668395  0.500266  0  .  1
   Mn  Mn20  1  0.246780  0.000924  0.749323  0  .  1
   Mn  Mn21  1  0.333919  0.333492  0.001602  0  .  1
   Mn  Mn22  1  0.082563  0.333500  0.248372  0  .  1
   Mn  Mn23  1  0.998931  0.999811  0.996672  0  .  1
   O  O24  1  0.924711  0.839970  0.890445  0  .  1
   O  O25  1  0.811746  0.620812  0.872933  0  .  1
   O  O26  1  0.985371  0.839983  0.359531  0  .  1
   O  O27  1  0.912325  0.481332  0.625276  0  .  1
   O  O28  1  0.803468  0.198945  0.890300  0  .  1
   O  O29  1  0.482845  0.853647  0.873277  0  .  1
   O  O30  1  0.686905  0.811202  0.625315  0  .  1
   O  O31  1  0.578023  0.526384  0.872364  0  .  1
   O  O32  1  0.977748  0.294447  0.373441  0  .  1
   O  O33  1  0.628100  0.960767  0.360140  0  .  1
   O  O34  1  0.686606  0.376815  0.625004  0  .  1
   O  O35  1  0.161122  0.960814  0.889874  0  .  1
   O  O36  1  0.477671  0.294433  0.876447  0  .  1
   O  O37  1  0.747944  0.811313  0.122934  0  .  1
   O  O38  1  0.645566  0.526391  0.377574  0  .  1
   O  O39  1  0.557743  0.158863  0.625050  0  .  1
   O  O40  1  0.251873  0.811168  0.624759  0  .  1
   O  O41  1  0.146451  0.518452  0.875614  0  .  1
   O  O42  1  0.852732  0.480980  0.123864  0  .  1
   O  O43  1  0.747549  0.198959  0.359749  0  .  1
   O  O44  1  0.413474  0.853752  0.376628  0  .  1
   O  O45  1  0.356254  0.481389  0.624735  0  .  1
   O  O46  1  0.252944  0.186738  0.876181  0  .  1
   O  O47  1  0.520849  0.708359  0.125006  0  .  1
   O  O48  1  0.855747  0.038623  0.125064  0  .  1
   O  O49  1  0.317484  0.620850  0.377121  0  .  1
   O  O50  1  0.356708  0.036704  0.625041  0  .  1
   O  O51  1  0.033397  0.683130  0.624954  0  .  1
   O  O52  1  0.416280  0.480914  0.126183  0  .  1
   O  O53  1  0.310303  0.186777  0.373816  0  .  1
   O  O54  1  0.190760  0.811262  0.127063  0  .  1
   O  O55  1  0.521283  0.147546  0.124141  0  .  1
   O  O56  1  0.085063  0.518512  0.374246  0  .  1
   O  O57  1  0.033444  0.158896  0.624928  0  .  1
   O  O58  1  0.188406  0.373157  0.124967  0  .  1
   O  O59  1  0.081234  0.147441  0.125984  0  .  1
 
