#\#CIF1.1
##########################################################################
#               Crystallographic Information Format file 
#               Produced by PyCifRW module
# 
#  This is a CIF file.  CIF has been adopted by the International
#  Union of Crystallography as the standard for data archiving and 
#  transmission.
#
#  For information on this file format, follow the CIF links at
#  http://www.iucr.org
##########################################################################

data_La16Cu8O31
_symmetry_space_group_name_H-M          'P 1'
_cell_length_a                          7.05246888885
_cell_length_b                          11.8237882641
_cell_length_c                          11.1541276508
_cell_angle_alpha                       118.248362773
_cell_angle_beta                        89.8521283015
_cell_angle_gamma                       104.339825459
_chemical_name_systematic               'Generated by pymatgen'
_symmetry_Int_Tables_number             1
_chemical_formula_structural            La16Cu8O31
_chemical_formula_sum                   'La16 Cu8 O31'
_cell_volume                            786.614739264
_cell_formula_units_Z                   1
loop_
  _symmetry_equiv_pos_site_id
  _symmetry_equiv_pos_as_xyz
   1  'x, y, z'
 
loop_
  _atom_site_type_symbol
  _atom_site_label
  _atom_site_symmetry_multiplicity
  _atom_site_fract_x
  _atom_site_fract_y
  _atom_site_fract_z
  _atom_site_attached_hydrogens
  _atom_site_B_iso_or_equiv
  _atom_site_occupancy
   La  La1  1  0.456109  0.179249  0.599167  0  .  1
   La  La2  1  0.044174  0.319890  0.154166  0  .  1
   La  La3  1  0.456750  0.180027  0.094691  0  .  1
   La  La4  1  0.796259  0.073956  0.294571  0  .  1
   La  La5  1  0.043230  0.319104  0.652680  0  .  1
   La  La6  1  0.807094  0.088793  0.804859  0  .  1
   La  La7  1  0.287879  0.564179  0.039727  0  .  1
   La  La8  1  0.708793  0.439430  0.960285  0  .  1
   La  La9  1  0.700466  0.427918  0.455664  0  .  1
   La  La10  1  0.279914  0.550519  0.534297  0  .  1
   La  La11  1  0.549775  0.816416  0.390979  0  .  1
   La  La12  1  0.202630  0.932386  0.203251  0  .  1
   La  La13  1  0.554672  0.814333  0.921155  0  .  1
   La  La14  1  0.182163  0.936192  0.706746  0  .  1
   La  La15  1  0.962301  0.680669  0.352356  0  .  1
   La  La16  1  0.964459  0.679585  0.842785  0  .  1
   Cu  Cu17  1  0.995216  0.001525  0.000000  0  .  1
   Cu  Cu18  1  0.994098  0.001814  0.500506  0  .  1
   Cu  Cu19  1  0.257124  0.245450  0.372688  0  .  1
   Cu  Cu20  1  0.259372  0.249699  0.875367  0  .  1
   Cu  Cu21  1  0.500650  0.500473  0.251171  0  .  1
   Cu  Cu22  1  0.499493  0.499961  0.749681  0  .  1
   Cu  Cu23  1  0.734308  0.754089  0.627592  0  .  1
   Cu  Cu24  1  0.760536  0.747157  0.125402  0  .  1
   O  O25  1  0.139707  0.120835  0.935532  0  .  1
   O  O26  1  0.146339  0.117098  0.433655  0  .  1
   O  O27  1  0.112480  0.128401  0.189182  0  .  1
   O  O28  1  0.113893  0.128226  0.689930  0  .  1
   O  O29  1  0.513811  0.132790  0.789680  0  .  1
   O  O30  1  0.723382  0.100205  0.515377  0  .  1
   O  O31  1  0.723459  0.100636  0.021237  0  .  1
   O  O32  1  0.538551  0.160208  0.297325  0  .  1
   O  O33  1  0.360965  0.377640  0.313321  0  .  1
   O  O34  1  0.363299  0.378369  0.814196  0  .  1
   O  O35  1  0.391940  0.367606  0.559102  0  .  1
   O  O36  1  0.394993  0.370090  0.060212  0  .  1
   O  O37  1  0.050588  0.673248  0.563208  0  .  1
   O  O38  1  0.028389  0.650931  0.039702  0  .  1
   O  O39  1  0.209738  0.589017  0.258992  0  .  1
   O  O40  1  0.785068  0.407657  0.734873  0  .  1
   O  O41  1  0.790078  0.413177  0.243005  0  .  1
   O  O42  1  0.214336  0.587626  0.763547  0  .  1
   O  O43  1  0.957201  0.336921  0.947896  0  .  1
   O  O44  1  0.973797  0.351440  0.455239  0  .  1
   O  O45  1  0.595242  0.635252  0.443877  0  .  1
   O  O46  1  0.607864  0.629121  0.942356  0  .  1
   O  O47  1  0.624615  0.626060  0.688081  0  .  1
   O  O48  1  0.641735  0.620664  0.187195  0  .  1
   O  O49  1  0.291736  0.896930  0.494281  0  .  1
   O  O50  1  0.286664  0.898630  0.965796  0  .  1
   O  O51  1  0.466756  0.846118  0.192814  0  .  1
   O  O52  1  0.849313  0.887341  0.572400  0  .  1
   O  O53  1  0.897966  0.867030  0.310366  0  .  1
   O  O54  1  0.865973  0.879826  0.066813  0  .  1
   O  O55  1  0.867277  0.876556  0.812441  0  .  1
 
