#\#CIF1.1
##########################################################################
#               Crystallographic Information Format file 
#               Produced by PyCifRW module
# 
#  This is a CIF file.  CIF has been adopted by the International
#  Union of Crystallography as the standard for data archiving and 
#  transmission.
#
#  For information on this file format, follow the CIF links at
#  http://www.iucr.org
##########################################################################

data_La17Mn18O54
_symmetry_space_group_name_H-M          'P 1'
_cell_length_a                          16.629866819
_cell_length_b                          19.9472316627
_cell_length_c                          13.4875765598
_cell_angle_alpha                       25.4479322377
_cell_angle_beta                        35.7750314026
_cell_angle_gamma                       46.7100958771
_chemical_name_systematic               'Generated by pymatgen'
_symmetry_Int_Tables_number             1
_chemical_formula_structural            La17Mn18O54
_chemical_formula_sum                   'La17 Mn18 O54'
_cell_volume                            1104.11644203
_cell_formula_units_Z                   1
loop_
  _symmetry_equiv_pos_site_id
  _symmetry_equiv_pos_as_xyz
   1  'x, y, z'
 
loop_
  _atom_site_type_symbol
  _atom_site_label
  _atom_site_symmetry_multiplicity
  _atom_site_fract_x
  _atom_site_fract_y
  _atom_site_fract_z
  _atom_site_attached_hydrogens
  _atom_site_B_iso_or_equiv
  _atom_site_occupancy
   La  La1  1  0.220508  0.333279  0.252123  0  .  1
   La  La2  1  0.110793  0.668782  0.248344  0  .  1
   La  La3  1  0.215745  0.323878  0.762056  0  .  1
   La  La4  1  0.555929  0.328236  0.257508  0  .  1
   La  La5  1  0.106221  0.675380  0.735768  0  .  1
   La  La6  1  0.443785  0.664681  0.252127  0  .  1
   La  La7  1  0.999568  0.000779  0.748928  0  .  1
   La  La8  1  0.333717  0.000378  0.247227  0  .  1
   La  La9  1  0.556508  0.333368  0.748598  0  .  1
   La  La10  1  0.890610  0.337341  0.241413  0  .  1
   La  La11  1  0.444056  0.666606  0.751422  0  .  1
   La  La12  1  0.779085  0.666756  0.248550  0  .  1
   La  La13  1  0.324175  0.001398  0.764581  0  .  1
   La  La14  1  0.666620  0.001100  0.250502  0  .  1
   La  La15  1  0.891367  0.323521  0.768232  0  .  1
   La  La16  1  0.784942  0.674253  0.738441  0  .  1
   La  La17  1  0.676047  0.000227  0.733667  0  .  1
   Mn  Mn18  1  0.999942  0.000235  0.001663  0  .  1
   Mn  Mn19  1  0.332391  0.000394  0.000587  0  .  1
   Mn  Mn20  1  0.222429  0.334768  0.997448  0  .  1
   Mn  Mn21  1  0.110907  0.665647  0.001406  0  .  1
   Mn  Mn22  1  0.666775  0.999627  1.000045  0  .  1
   Mn  Mn23  1  0.222318  0.331107  0.502701  0  .  1
   Mn  Mn24  1  0.555203  0.333789  0.999263  0  .  1
   Mn  Mn25  1  0.110360  0.666298  0.500355  0  .  1
   Mn  Mn26  1  0.444724  0.666812  0.000095  0  .  1
   Mn  Mn27  1  0.000043  0.000233  0.498085  0  .  1
   Mn  Mn28  1  0.555978  0.334509  0.498679  0  .  1
   Mn  Mn29  1  0.888333  0.330647  0.003975  0  .  1
   Mn  Mn30  1  0.443935  0.668032  0.497705  0  .  1
   Mn  Mn31  1  0.779347  0.667937  0.996867  0  .  1
   Mn  Mn32  1  0.333546  0.000558  0.499237  0  .  1
   Mn  Mn33  1  0.888919  0.333718  0.500354  0  .  1
   Mn  Mn34  1  0.777290  0.665629  0.502654  0  .  1
   Mn  Mn35  1  0.667617  0.999647  0.499358  0  .  1
   O  O36  1  0.141215  0.145997  0.249777  0  .  1
   O  O37  1  0.047262  0.289503  0.315813  0  .  1
   O  O38  1  0.029840  0.478325  0.248043  0  .  1
   O  O39  1  0.314653  0.191685  0.180358  0  .  1
   O  O40  1  0.174834  0.043166  0.682202  0  .  1
   O  O41  1  0.091659  0.198489  0.715715  0  .  1
   O  O42  1  0.204385  0.524455  0.179305  0  .  1
   O  O43  1  0.474202  0.146140  0.245409  0  .  1
   O  O44  1  0.063638  0.378810  0.680854  0  .  1
   O  O45  1  0.381667  0.291849  0.309736  0  .  1
   O  O46  1  0.264795  0.158294  0.774141  0  .  1
   O  O47  1  0.094699  0.840784  0.190028  0  .  1
   O  O48  1  0.366526  0.482657  0.238780  0  .  1
   O  O49  1  0.645285  0.186895  0.187829  0  .  1
   O  O50  1  0.272447  0.614615  0.323883  0  .  1
   O  O51  1  0.506933  0.038542  0.691767  0  .  1
   O  O52  1  0.132349  0.476767  0.813233  0  .  1
   O  O53  1  0.419072  0.192013  0.742854  0  .  1
   O  O54  1  0.250994  0.806685  0.255793  0  .  1
   O  O55  1  0.542333  0.526394  0.173649  0  .  1
   O  O56  1  0.788412  0.158556  0.250363  0  .  1
   O  O57  1  0.173903  0.959426  0.308058  0  .  1
   O  O58  1  0.397993  0.376823  0.684317  0  .  1
   O  O59  1  0.715480  0.291361  0.315348  0  .  1
   O  O60  1  0.019763  0.811476  0.817715  0  .  1
   O  O61  1  0.299419  0.527065  0.745404  0  .  1
   O  O62  1  0.574320  0.146324  0.815509  0  .  1
   O  O63  1  0.431838  0.856893  0.174913  0  .  1
   O  O64  1  0.692923  0.476561  0.257601  0  .  1
   O  O65  1  0.973831  0.198996  0.188345  0  .  1
   O  O66  1  0.288468  0.712761  0.678408  0  .  1
   O  O67  1  0.599057  0.620498  0.322382  0  .  1
   O  O68  1  0.840613  0.043610  0.687227  0  .  1
   O  O69  1  0.192290  0.856275  0.749828  0  .  1
   O  O70  1  0.462157  0.479675  0.813129  0  .  1
   O  O71  1  0.747861  0.188120  0.752772  0  .  1
   O  O72  1  0.585473  0.810006  0.251742  0  .  1
   O  O73  1  0.866869  0.521154  0.191320  0  .  1
   O  O74  1  0.492065  0.954790  0.317768  0  .  1
   O  O75  1  0.728252  0.377181  0.685929  0  .  1
   O  O76  1  0.352416  0.809993  0.816862  0  .  1
   O  O77  1  0.635182  0.521580  0.754722  0  .  1
   O  O78  1  0.909005  0.145656  0.811776  0  .  1
   O  O79  1  0.759177  0.853350  0.185757  0  .  1
   O  O80  1  0.616622  0.714270  0.681453  0  .  1
   O  O81  1  0.936157  0.616950  0.325190  0  .  1
   O  O82  1  0.517525  0.853642  0.762727  0  .  1
   O  O83  1  0.797144  0.480639  0.813714  0  .  1
   O  O84  1  0.917695  0.813051  0.245915  0  .  1
   O  O85  1  0.811442  0.958213  0.316589  0  .  1
   O  O86  1  0.684273  0.809210  0.819222  0  .  1
   O  O87  1  0.973571  0.523373  0.742652  0  .  1
   O  O88  1  0.947387  0.680894  0.728225  0  .  1
   O  O89  1  0.852897  0.840014  0.787988  0  .  1
 
