#\#CIF1.1
##########################################################################
#               Crystallographic Information Format file 
#               Produced by PyCifRW module
# 
#  This is a CIF file.  CIF has been adopted by the International
#  Union of Crystallography as the standard for data archiving and 
#  transmission.
#
#  For information on this file format, follow the CIF links at
#  http://www.iucr.org
##########################################################################

data_La19Mn19O60
_symmetry_space_group_name_H-M          'P 1'
_cell_length_a                          11.0513590505
_cell_length_b                          30.681590077
_cell_length_c                          14.5744566041
_cell_angle_alpha                       18.3733238452
_cell_angle_beta                        56.3652472447
_cell_angle_gamma                       51.9186787544
_chemical_name_systematic               'Generated by pymatgen'
_symmetry_Int_Tables_number             1
_chemical_formula_structural            La19Mn19O60
_chemical_formula_sum                   'La19 Mn19 O60'
_cell_volume                            1216.23249687
_cell_formula_units_Z                   1
loop_
  _symmetry_equiv_pos_site_id
  _symmetry_equiv_pos_as_xyz
   1  'x, y, z'
 
loop_
  _atom_site_type_symbol
  _atom_site_label
  _atom_site_symmetry_multiplicity
  _atom_site_fract_x
  _atom_site_fract_y
  _atom_site_fract_z
  _atom_site_attached_hydrogens
  _atom_site_B_iso_or_equiv
  _atom_site_occupancy
   La  La1  1  0.335494  0.049583  0.754785  0  .  1
   La  La2  1  0.550039  0.150991  0.248860  0  .  1
   La  La3  1  0.246497  0.242987  0.772027  0  .  1
   La  La4  1  0.449424  0.348207  0.253346  0  .  1
   La  La5  1  0.145581  0.445560  0.757063  0  .  1
   La  La6  1  0.350419  0.549329  0.252560  0  .  1
   La  La7  1  0.861525  0.047504  0.758049  0  .  1
   La  La8  1  0.047058  0.665725  0.713979  0  .  1
   La  La9  1  0.242777  0.759916  0.237011  0  .  1
   La  La10  1  0.757766  0.239843  0.761874  0  .  1
   La  La11  1  0.952568  0.334346  0.284228  0  .  1
   La  La12  1  0.140096  0.955415  0.232630  0  .  1
   La  La13  1  0.660958  0.442647  0.762148  0  .  1
   La  La14  1  0.850462  0.548944  0.252276  0  .  1
   La  La15  1  0.549393  0.651472  0.747765  0  .  1
   La  La16  1  0.755278  0.751617  0.243154  0  .  1
   La  La17  1  0.440061  0.857195  0.736026  0  .  1
   La  La18  1  0.660991  0.952563  0.241171  0  .  1
   La  La19  1  0.955059  0.858147  0.737101  0  .  1
   Mn  Mn20  1  0.500440  -0.000023  0.999216  0  .  1
   Mn  Mn21  1  0.199197  0.100594  0.494962  0  .  1
   Mn  Mn22  1  0.397286  0.198872  0.003822  0  .  1
   Mn  Mn23  1  0.100708  0.304785  0.491135  0  .  1
   Mn  Mn24  1  0.301138  0.399890  -0.000160  0  .  1
   Mn  Mn25  1  0.999926  0.497377  0.505533  0  .  1
   Mn  Mn26  1  0.200274  0.600100  0.000339  0  .  1
   Mn  Mn27  1  0.703376  0.098948  0.501964  0  .  1
   Mn  Mn28  1  0.901410  0.199441  0.002692  0  .  1
   Mn  Mn29  1  0.099414  0.802722  0.994718  0  .  1
   Mn  Mn30  1  0.596806  0.302137  0.496591  0  .  1
   Mn  Mn31  1  0.801852  0.397873  0.002560  0  .  1
   Mn  Mn32  1  0.499170  0.500704  0.499147  0  .  1
   Mn  Mn33  1  0.699222  0.601045  0.998226  0  .  1
   Mn  Mn34  1  0.403503  0.696922  0.504766  0  .  1
   Mn  Mn35  1  0.599703  0.799833  0.999661  0  .  1
   Mn  Mn36  1  0.298955  0.903193  0.493384  0  .  1
   Mn  Mn37  1  0.899324  0.695743  0.508697  0  .  1
   Mn  Mn38  1  0.798874  0.899797  0.502863  0  .  1
   O  O39  1  0.087854  0.019467  0.307467  0  .  1
   O  O40  1  0.332951  0.056516  0.248004  0  .  1
   O  O41  1  0.124978  0.023704  0.781729  0  .  1
   O  O42  1  0.296706  0.188323  0.185990  0  .  1
   O  O43  1  0.215348  0.262514  0.250834  0  .  1
   O  O44  1  0.580361  0.026560  0.312172  0  .  1
   O  O45  1  0.085188  0.153328  0.723679  0  .  1
   O  O46  1  0.016110  0.214734  0.807810  0  .  1
   O  O47  1  0.181020  0.394191  0.176638  0  .  1
   O  O48  1  0.109588  0.462850  0.252914  0  .  1
   O  O49  1  0.477432  0.223953  0.318541  0  .  1
   O  O50  1  0.812771  0.060700  0.253561  0  .  1
   O  O51  1  0.318059  0.177045  0.685245  0  .  1
   O  O52  1  0.082552  0.592364  0.178468  0  .  1
   O  O53  1  0.616281  0.013595  0.811812  0  .  1
   O  O54  1  0.766800  0.185059  0.192642  0  .  1
   O  O55  1  0.018141  0.661219  0.249932  0  .  1
   O  O56  1  0.380984  0.417615  0.328877  0  .  1
   O  O57  1  0.708603  0.267262  0.242491  0  .  1
   O  O58  1  0.221729  0.374420  0.687013  0  .  1
   O  O59  1  0.591043  0.133921  0.755419  0  .  1
   O  O60  1  0.518344  0.214614  0.810645  0  .  1
   O  O61  1  0.674911  0.389857  0.184328  0  .  1
   O  O62  1  0.280816  0.619720  0.320637  0  .  1
   O  O63  1  0.609303  0.467117  0.241606  0  .  1
   O  O64  1  0.976022  0.235717  0.303981  0  .  1
   O  O65  1  0.120887  0.575215  0.687069  0  .  1
   O  O66  1  0.491462  0.339568  0.742326  0  .  1
   O  O67  1  0.800931  0.183173  0.679675  0  .  1
   O  O68  1  0.419315  0.410800  0.815404  0  .  1
   O  O69  1  0.577085  0.593453  0.177575  0  .  1
   O  O70  1  0.199570  0.815753  0.321623  0  .  1
   O  O71  1  0.508230  0.662706  0.252023  0  .  1
   O  O72  1  0.878219  0.425767  0.313824  0  .  1
   O  O73  1  0.018287  0.774568  0.687234  0  .  1
   O  O74  1  0.395592  0.530390  0.761779  0  .  1
   O  O75  1  0.715822  0.376887  0.685369  0  .  1
   O  O76  1  0.320230  0.609934  0.819682  0  .  1
   O  O77  1  0.484278  0.787742  0.183995  0  .  1
   O  O78  1  0.410650  0.863815  0.247655  0  .  1
   O  O79  1  0.778838  0.628259  0.305406  0  .  1
   O  O80  1  0.290517  0.731102  0.762725  0  .  1
   O  O81  1  0.617018  0.578642  0.682913  0  .  1
   O  O82  1  0.978294  0.351914  0.716288  0  .  1
   O  O83  1  0.220711  0.809882  0.816819  0  .  1
   O  O84  1  0.383543  0.985947  0.187512  0  .  1
   O  O85  1  0.906002  0.436322  0.772119  0  .  1
   O  O86  1  0.681535  0.822068  0.316669  0  .  1
   O  O87  1  0.192849  0.923285  0.784040  0  .  1
   O  O88  1  0.520950  0.774893  0.684740  0  .  1
   O  O89  1  0.888398  0.538966  0.745834  0  .  1
   O  O90  1  0.818945  0.606577  0.822574  0  .  1
   O  O91  1  0.982879  0.785297  0.192408  0  .  1
   O  O92  1  0.913885  0.847294  0.276177  0  .  1
   O  O93  1  0.422342  0.972007  0.691208  0  .  1
   O  O94  1  0.787211  0.738726  0.745817  0  .  1
   O  O95  1  0.719956  0.809738  0.816426  0  .  1
   O  O96  1  0.874693  0.978660  0.213802  0  .  1
   O  O97  1  0.686337  0.936562  0.751318  0  .  1
   O  O98  1  0.908625  0.955778  0.731360  0  .  1
 
