#\#CIF1.1
##########################################################################
#               Crystallographic Information Format file 
#               Produced by PyCifRW module
# 
#  This is a CIF file.  CIF has been adopted by the International
#  Union of Crystallography as the standard for data archiving and 
#  transmission.
#
#  For information on this file format, follow the CIF links at
#  http://www.iucr.org
##########################################################################

data_La2CrO6
_symmetry_space_group_name_H-M          'P 1'
_cell_length_a                          4.43822209
_cell_length_b                          7.60300018915
_cell_length_c                          8.51446997777
_cell_angle_alpha                       106.554768259
_cell_angle_beta                        90.0
_cell_angle_gamma                       106.970127581
_chemical_name_systematic               'Generated by pymatgen'
_symmetry_Int_Tables_number             1
_chemical_formula_structural            La2CrO6
_chemical_formula_sum                   'La4 Cr2 O12'
_cell_volume                            262.32323451
_cell_formula_units_Z                   2
loop_
  _symmetry_equiv_pos_site_id
  _symmetry_equiv_pos_as_xyz
   1  'x, y, z'
 
loop_
  _atom_site_type_symbol
  _atom_site_label
  _atom_site_symmetry_multiplicity
  _atom_site_fract_x
  _atom_site_fract_y
  _atom_site_fract_z
  _atom_site_attached_hydrogens
  _atom_site_B_iso_or_equiv
  _atom_site_occupancy
   La  La1  1  0.676680  0.341004  0.085074  0  .  1
   La  La2  1  0.335676  0.658996  0.414926  0  .  1
   La  La3  1  0.664324  0.341004  0.585074  0  .  1
   La  La4  1  0.323320  0.658996  0.914926  0  .  1
   Cr  Cr5  1  0.956451  0.000000  0.250000  0  .  1
   Cr  Cr6  1  0.043549  0.000000  0.750000  0  .  1
   O  O7  1  0.734810  0.512054  0.877755  0  .  1
   O  O8  1  0.267475  0.002102  0.908302  0  .  1
   O  O9  1  0.265506  0.197602  0.298651  0  .  1
   O  O10  1  0.734494  0.802398  0.701349  0  .  1
   O  O11  1  0.222756  0.487946  0.622245  0  .  1
   O  O12  1  0.265372  0.997898  0.591698  0  .  1
   O  O13  1  0.777244  0.512054  0.377755  0  .  1
   O  O14  1  0.732525  0.997898  0.091698  0  .  1
   O  O15  1  0.265190  0.487946  0.122245  0  .  1
   O  O16  1  0.734628  0.002102  0.408302  0  .  1
   O  O17  1  0.932096  0.197602  0.798651  0  .  1
   O  O18  1  0.067904  0.802398  0.201349  0  .  1
 
