#\#CIF1.1
##########################################################################
#               Crystallographic Information Format file 
#               Produced by PyCifRW module
# 
#  This is a CIF file.  CIF has been adopted by the International
#  Union of Crystallography as the standard for data archiving and 
#  transmission.
#
#  For information on this file format, follow the CIF links at
#  http://www.iucr.org
##########################################################################

data_La2CoO4
_symmetry_space_group_name_H-M          'P 1'
_cell_length_a                          5.40783965837
_cell_length_b                          5.41669417106
_cell_length_c                          6.98387534593
_cell_angle_alpha                       89.9318583796
_cell_angle_beta                        112.776448699
_cell_angle_gamma                       90.1839269437
_chemical_name_systematic               'Generated by pymatgen'
_symmetry_Int_Tables_number             1
_chemical_formula_structural            La2CoO4
_chemical_formula_sum                   'La4 Co2 O8'
_cell_volume                            188.622638974
_cell_formula_units_Z                   2
loop_
  _symmetry_equiv_pos_site_id
  _symmetry_equiv_pos_as_xyz
   1  'x, y, z'
 
loop_
  _atom_site_type_symbol
  _atom_site_label
  _atom_site_symmetry_multiplicity
  _atom_site_fract_x
  _atom_site_fract_y
  _atom_site_fract_z
  _atom_site_attached_hydrogens
  _atom_site_B_iso_or_equiv
  _atom_site_occupancy
   La  La1  1  0.362559  0.997787  0.724980  0  .  1
   La  La2  1  0.137558  0.497742  0.275021  0  .  1
   La  La3  1  0.862445  0.502255  0.724981  0  .  1
   La  La4  1  0.637442  0.002211  0.275022  0  .  1
   Co  Co5  1  1.000000  0.000000  0.999999  0  .  1
   Co  Co6  1  0.499999  0.500001  0.999999  0  .  1
   O  O7  1  0.747097  0.250008  0.994176  0  .  1
   O  O8  1  0.680780  0.491978  0.361449  0  .  1
   O  O9  1  0.819266  0.991964  0.638552  0  .  1
   O  O10  1  0.247222  0.249988  0.994409  0  .  1
   O  O11  1  0.252901  0.749992  0.005821  0  .  1
   O  O12  1  0.180735  0.008039  0.361448  0  .  1
   O  O13  1  0.319219  0.508025  0.638553  0  .  1
   O  O14  1  0.752780  0.750012  0.005591  0  .  1
 
