#\#CIF1.1
##########################################################################
#               Crystallographic Information Format file 
#               Produced by PyCifRW module
# 
#  This is a CIF file.  CIF has been adopted by the International
#  Union of Crystallography as the standard for data archiving and 
#  transmission.
#
#  For information on this file format, follow the CIF links at
#  http://www.iucr.org
##########################################################################

data_La2MnVO6
_symmetry_space_group_name_H-M          'P 1'
_cell_length_a                          5.68904247
_cell_length_b                          5.63277745833
_cell_length_c                          8.04295254491
_cell_angle_alpha                       89.7976659059
_cell_angle_beta                        90.0
_cell_angle_gamma                       90.0
_chemical_name_systematic               'Generated by pymatgen'
_symmetry_Int_Tables_number             1
_chemical_formula_structural            La2MnVO6
_chemical_formula_sum                   'La4 Mn2 V2 O12'
_cell_volume                            257.735693422
_cell_formula_units_Z                   2
loop_
  _symmetry_equiv_pos_site_id
  _symmetry_equiv_pos_as_xyz
   1  'x, y, z'
 
loop_
  _atom_site_type_symbol
  _atom_site_label
  _atom_site_symmetry_multiplicity
  _atom_site_fract_x
  _atom_site_fract_y
  _atom_site_fract_z
  _atom_site_attached_hydrogens
  _atom_site_B_iso_or_equiv
  _atom_site_occupancy
   La  La1  1  0.454093  0.491563  0.750876  0  .  1
   La  La2  1  0.545907  0.508437  0.249124  0  .  1
   La  La3  1  0.954093  0.008437  0.749124  0  .  1
   La  La4  1  0.045907  0.991563  0.250876  0  .  1
   Mn  Mn5  1  0.000000  0.500000  0.000000  0  .  1
   Mn  Mn6  1  0.500000  0.000000  0.500000  0  .  1
   V  V7  1  0.000000  0.500000  0.500000  0  .  1
   V  V8  1  0.500000  0.000000  0.000000  0  .  1
   O  O9  1  0.974728  0.407436  0.260400  0  .  1
   O  O10  1  0.307729  0.717131  0.046182  0  .  1
   O  O11  1  0.525272  0.907436  0.760400  0  .  1
   O  O12  1  0.025272  0.592564  0.739600  0  .  1
   O  O13  1  0.720565  0.307736  0.551571  0  .  1
   O  O14  1  0.779435  0.807736  0.051571  0  .  1
   O  O15  1  0.474728  0.092564  0.239600  0  .  1
   O  O16  1  0.220565  0.192264  0.948429  0  .  1
   O  O17  1  0.807729  0.782869  0.453818  0  .  1
   O  O18  1  0.279435  0.692264  0.448429  0  .  1
   O  O19  1  0.692271  0.282869  0.953818  0  .  1
   O  O20  1  0.192271  0.217131  0.546182  0  .  1
 
