#\#CIF1.1
##########################################################################
#               Crystallographic Information Format file 
#               Produced by PyCifRW module
# 
#  This is a CIF file.  CIF has been adopted by the International
#  Union of Crystallography as the standard for data archiving and 
#  transmission.
#
#  For information on this file format, follow the CIF links at
#  http://www.iucr.org
##########################################################################

data_La2NiO4
_symmetry_space_group_name_H-M          'P 1'
_cell_length_a                          5.5269337067
_cell_length_b                          5.70213018
_cell_length_c                          6.80339946681
_cell_angle_alpha                       90.0
_cell_angle_beta                        113.965665044
_cell_angle_gamma                       90.0
_chemical_name_systematic               'Generated by pymatgen'
_symmetry_Int_Tables_number             1
_chemical_formula_structural            La2NiO4
_chemical_formula_sum                   'La4 Ni2 O8'
_cell_volume                            195.92655261
_cell_formula_units_Z                   2
loop_
  _symmetry_equiv_pos_site_id
  _symmetry_equiv_pos_as_xyz
   1  'x, y, z'
 
loop_
  _atom_site_type_symbol
  _atom_site_label
  _atom_site_symmetry_multiplicity
  _atom_site_fract_x
  _atom_site_fract_y
  _atom_site_fract_z
  _atom_site_attached_hydrogens
  _atom_site_B_iso_or_equiv
  _atom_site_occupancy
   O  O1  1  0.320575  0.434197  0.641152  0  .  1
   O  O2  1  0.679426  0.565804  0.358849  0  .  1
   O  O3  1  0.179425  0.934196  0.358849  0  .  1
   O  O4  1  0.820576  0.065804  0.641152  0  .  1
   O  O5  1  0.268462  0.250000  0.036923  0  .  1
   O  O6  1  0.231538  0.749999  0.963077  0  .  1
   O  O7  1  0.768461  0.250000  0.036923  0  .  1
   O  O8  1  0.731538  0.749999  0.963077  0  .  1
   Ni  Ni9  1  0.500001  0.499999  0.000000  0  .  1
   Ni  Ni10  1  0.000000  0.000000  0.000000  0  .  1
   La  La11  1  0.862805  0.485069  0.725611  0  .  1
   La  La12  1  0.137193  0.514930  0.274388  0  .  1
   La  La13  1  0.362807  0.014930  0.725612  0  .  1
   La  La14  1  0.637194  0.985070  0.274388  0  .  1
 
