#\#CIF1.1
##########################################################################
#               Crystallographic Information Format file 
#               Produced by PyCifRW module
# 
#  This is a CIF file.  CIF has been adopted by the International
#  Union of Crystallography as the standard for data archiving and 
#  transmission.
#
#  For information on this file format, follow the CIF links at
#  http://www.iucr.org
##########################################################################

data_La2Ni7
_symmetry_space_group_name_H-M          'P 1'
_cell_length_a                          5.0243067
_cell_length_b                          5.02430670121
_cell_length_c                          24.59026144
_cell_angle_alpha                       90.0
_cell_angle_beta                        90.0
_cell_angle_gamma                       119.999999992
_chemical_name_systematic               'Generated by pymatgen'
_symmetry_Int_Tables_number             1
_chemical_formula_structural            La2Ni7
_chemical_formula_sum                   'La8 Ni28'
_cell_volume                            537.583663431
_cell_formula_units_Z                   4
loop_
  _symmetry_equiv_pos_site_id
  _symmetry_equiv_pos_as_xyz
   1  'x, y, z'
 
loop_
  _atom_site_type_symbol
  _atom_site_label
  _atom_site_symmetry_multiplicity
  _atom_site_fract_x
  _atom_site_fract_y
  _atom_site_fract_z
  _atom_site_attached_hydrogens
  _atom_site_B_iso_or_equiv
  _atom_site_occupancy
   Ni  Ni1  1  0.833740  0.166260  0.412599  0  .  1
   Ni  Ni2  1  0.833740  0.667480  0.412599  0  .  1
   Ni  Ni3  1  0.332520  0.166260  0.412599  0  .  1
   Ni  Ni4  1  0.667480  0.833740  0.912599  0  .  1
   Ni  Ni5  1  0.166260  0.332520  0.587401  0  .  1
   Ni  Ni6  1  0.166260  0.833740  0.912599  0  .  1
   Ni  Ni7  1  0.166260  0.332520  0.912599  0  .  1
   Ni  Ni8  1  0.833740  0.166260  0.087401  0  .  1
   Ni  Ni9  1  0.000000  0.000000  0.000000  0  .  1
   Ni  Ni10  1  0.000000  0.000000  0.500000  0  .  1
   Ni  Ni11  1  0.000000  0.000000  0.168877  0  .  1
   Ni  Ni12  1  0.000000  0.000000  0.668877  0  .  1
   Ni  Ni13  1  0.000000  0.000000  0.831123  0  .  1
   Ni  Ni14  1  0.000000  0.000000  0.331123  0  .  1
   Ni  Ni15  1  0.333333  0.666667  0.831950  0  .  1
   Ni  Ni16  1  0.666667  0.333333  0.331950  0  .  1
   Ni  Ni17  1  0.666667  0.333333  0.168050  0  .  1
   Ni  Ni18  1  0.333333  0.666667  0.668050  0  .  1
   Ni  Ni19  1  0.832914  0.665829  0.250000  0  .  1
   Ni  Ni20  1  0.167086  0.832914  0.750000  0  .  1
   Ni  Ni21  1  0.665829  0.832914  0.750000  0  .  1
   Ni  Ni22  1  0.334171  0.167086  0.250000  0  .  1
   Ni  Ni23  1  0.832914  0.167086  0.250000  0  .  1
   Ni  Ni24  1  0.167086  0.334171  0.750000  0  .  1
   Ni  Ni25  1  0.833740  0.667480  0.087401  0  .  1
   Ni  Ni26  1  0.166260  0.833740  0.587401  0  .  1
   Ni  Ni27  1  0.667480  0.833740  0.587401  0  .  1
   Ni  Ni28  1  0.332520  0.166260  0.087401  0  .  1
   La  La29  1  0.333333  0.666667  0.325849  0  .  1
   La  La30  1  0.666667  0.333333  0.825849  0  .  1
   La  La31  1  0.666667  0.333333  0.674151  0  .  1
   La  La32  1  0.333333  0.666667  0.174151  0  .  1
   La  La33  1  0.333333  0.666667  0.469478  0  .  1
   La  La34  1  0.666667  0.333333  0.969478  0  .  1
   La  La35  1  0.666667  0.333333  0.530522  0  .  1
   La  La36  1  0.333333  0.666667  0.030522  0  .  1
 
