#\#CIF1.1
##########################################################################
#               Crystallographic Information Format file 
#               Produced by PyCifRW module
# 
#  This is a CIF file.  CIF has been adopted by the International
#  Union of Crystallography as the standard for data archiving and 
#  transmission.
#
#  For information on this file format, follow the CIF links at
#  http://www.iucr.org
##########################################################################

data_La2O3
_symmetry_space_group_name_H-M          'P 1'
_cell_length_a                          6.26630700781
_cell_length_b                          6.26725481682
_cell_length_c                          3.29976635739
_cell_angle_alpha                       90.0207322394
_cell_angle_beta                        89.9790940756
_cell_angle_gamma                       120.07136847
_chemical_name_systematic               'Generated by pymatgen'
_symmetry_Int_Tables_number             1
_chemical_formula_structural            La2O3
_chemical_formula_sum                   'La2 O3'
_cell_volume                            112.147611991
_cell_formula_units_Z                   1
loop_
  _symmetry_equiv_pos_site_id
  _symmetry_equiv_pos_as_xyz
   1  'x, y, z'
 
loop_
  _atom_site_type_symbol
  _atom_site_label
  _atom_site_symmetry_multiplicity
  _atom_site_fract_x
  _atom_site_fract_y
  _atom_site_fract_z
  _atom_site_attached_hydrogens
  _atom_site_B_iso_or_equiv
  _atom_site_occupancy
   O  O1  1  0.492052  0.492058  -0.000009  0  .  1
   O  O2  1  1.000127  0.507716  0.000050  0  .  1
   La  La3  1  0.333539  0.666600  0.503559  0  .  1
   O  O4  1  0.507739  1.000133  0.999950  0  .  1
   La  La5  1  0.666543  0.333492  0.496449  0  .  1
 
