#\#CIF1.1
##########################################################################
#               Crystallographic Information Format file 
#               Produced by PyCifRW module
# 
#  This is a CIF file.  CIF has been adopted by the International
#  Union of Crystallography as the standard for data archiving and 
#  transmission.
#
#  For information on this file format, follow the CIF links at
#  http://www.iucr.org
##########################################################################

data_La2S3
_symmetry_space_group_name_H-M          'P 1'
_cell_length_a                          22.7360720861
_cell_length_b                          8.76579009764
_cell_length_c                          8.7657907158
_cell_angle_alpha                       90.0000048638
_cell_angle_beta                        54.6676599495
_cell_angle_gamma                       54.6676571785
_chemical_name_systematic               'Generated by pymatgen'
_symmetry_Int_Tables_number             1
_chemical_formula_structural            La2S3
_chemical_formula_sum                   'La16 S24'
_cell_volume                            1005.25117698
_cell_formula_units_Z                   8
loop_
  _symmetry_equiv_pos_site_id
  _symmetry_equiv_pos_as_xyz
   1  'x, y, z'
 
loop_
  _atom_site_type_symbol
  _atom_site_label
  _atom_site_symmetry_multiplicity
  _atom_site_fract_x
  _atom_site_fract_y
  _atom_site_fract_z
  _atom_site_attached_hydrogens
  _atom_site_B_iso_or_equiv
  _atom_site_occupancy
   La  La1  1  0.086653  0.620019  0.370019  0  .  1
   La  La2  1  0.166667  0.250000  0.629358  0  .  1
   La  La3  1  0.339158  0.381581  0.249905  0  .  1
   La  La4  1  0.246680  0.879981  0.129981  0  .  1
   La  La5  1  0.339158  0.100944  0.732620  0  .  1
   La  La6  1  0.166667  0.750000  0.870642  0  .  1
   La  La7  1  0.494175  0.267380  0.618419  0  .  1
   La  La8  1  0.666667  0.370642  0.250000  0  .  1
   La  La9  1  0.586653  0.870019  0.120019  0  .  1
   La  La10  1  0.666667  0.129358  0.750000  0  .  1
   La  La11  1  0.494175  0.750095  0.899056  0  .  1
   La  La12  1  0.746680  0.629981  0.379981  0  .  1
   La  La13  1  0.839158  0.232620  0.600944  0  .  1
   La  La14  1  0.994175  0.399056  0.250095  0  .  1
   La  La15  1  0.994175  0.118419  0.767380  0  .  1
   La  La16  1  0.839158  0.749905  0.881581  0  .  1
   S  S17  1  0.127383  0.486114  0.991306  0  .  1
   S  S18  1  0.050302  0.351027  0.495596  0  .  1
   S  S19  1  0.283031  0.148973  0.146502  0  .  1
   S  S20  1  0.050302  0.998066  0.353498  0  .  1
   S  S21  1  0.283031  0.501934  0.004404  0  .  1
   S  S22  1  0.205950  0.013886  0.873457  0  .  1
   S  S23  1  0.127383  0.631734  0.626543  0  .  1
   S  S24  1  0.205950  0.868266  0.508694  0  .  1
   S  S25  1  0.449887  0.494390  0.992268  0  .  1
   S  S26  1  0.383447  0.341928  0.505610  0  .  1
   S  S27  1  0.627383  0.126543  0.131734  0  .  1
   S  S28  1  0.383447  0.007732  0.344050  0  .  1
   S  S29  1  0.627383  0.491306  0.986114  0  .  1
   S  S30  1  0.449887  0.655950  0.658072  0  .  1
   S  S31  1  0.550302  0.995596  0.851027  0  .  1
   S  S32  1  0.550302  0.853498  0.498066  0  .  1
   S  S33  1  0.783031  0.504404  0.001934  0  .  1
   S  S34  1  0.705950  0.373457  0.513886  0  .  1
   S  S35  1  0.705950  0.008694  0.368266  0  .  1
   S  S36  1  0.949887  0.158072  0.155950  0  .  1
   S  S37  1  0.949887  0.492268  0.994390  0  .  1
   S  S38  1  0.783031  0.646502  0.648973  0  .  1
   S  S39  1  0.883447  0.005610  0.841928  0  .  1
   S  S40  1  0.883447  0.844050  0.507732  0  .  1
 
