#\#CIF1.1
##########################################################################
#               Crystallographic Information Format file 
#               Produced by PyCifRW module
# 
#  This is a CIF file.  CIF has been adopted by the International
#  Union of Crystallography as the standard for data archiving and 
#  transmission.
#
#  For information on this file format, follow the CIF links at
#  http://www.iucr.org
##########################################################################

data_La4(CoO3)3
_symmetry_space_group_name_H-M          'P 1'
_cell_length_a                          5.48657718
_cell_length_b                          5.74537927
_cell_length_c                          28.45083952
_cell_angle_alpha                       90.0
_cell_angle_beta                        90.0
_cell_angle_gamma                       90.0
_chemical_name_systematic               'Generated by pymatgen'
_symmetry_Int_Tables_number             1
_chemical_formula_structural            La4(CoO3)3
_chemical_formula_sum                   'La16 Co12 O36'
_cell_volume                            896.840644009
_cell_formula_units_Z                   4
loop_
  _symmetry_equiv_pos_site_id
  _symmetry_equiv_pos_as_xyz
   1  'x, y, z'
 
loop_
  _atom_site_type_symbol
  _atom_site_label
  _atom_site_symmetry_multiplicity
  _atom_site_fract_x
  _atom_site_fract_y
  _atom_site_fract_z
  _atom_site_attached_hydrogens
  _atom_site_B_iso_or_equiv
  _atom_site_occupancy
   La  La1  1  0.751289  0.979577  0.671615  0  .  1
   La  La2  1  0.253808  0.482918  0.950684  0  .  1
   La  La3  1  0.248711  0.020423  0.328385  0  .  1
   La  La4  1  0.251289  0.520423  0.671615  0  .  1
   La  La5  1  0.748711  0.479577  0.328385  0  .  1
   La  La6  1  0.753808  0.017082  0.950684  0  .  1
   La  La7  1  0.748711  0.479577  0.171615  0  .  1
   La  La8  1  0.248711  0.020423  0.171615  0  .  1
   La  La9  1  0.246192  0.982918  0.450684  0  .  1
   La  La10  1  0.746192  0.517082  0.049316  0  .  1
   La  La11  1  0.746192  0.517082  0.450684  0  .  1
   La  La12  1  0.753808  0.017082  0.549316  0  .  1
   La  La13  1  0.246192  0.982918  0.049316  0  .  1
   La  La14  1  0.251289  0.520423  0.828385  0  .  1
   La  La15  1  0.253808  0.482918  0.549316  0  .  1
   La  La16  1  0.751289  0.979577  0.828385  0  .  1
   Co  Co17  1  0.296449  0.059788  0.750000  0  .  1
   Co  Co18  1  0.249605  0.501069  0.390462  0  .  1
   Co  Co19  1  0.750395  0.498931  0.890462  0  .  1
   Co  Co20  1  0.250395  0.001069  0.890462  0  .  1
   Co  Co21  1  0.796449  0.440212  0.750000  0  .  1
   Co  Co22  1  0.249605  0.501069  0.109538  0  .  1
   Co  Co23  1  0.749605  0.998931  0.390462  0  .  1
   Co  Co24  1  0.203551  0.559788  0.250000  0  .  1
   Co  Co25  1  0.749605  0.998931  0.109538  0  .  1
   Co  Co26  1  0.703551  0.940212  0.250000  0  .  1
   Co  Co27  1  0.250395  0.001069  0.609538  0  .  1
   Co  Co28  1  0.750395  0.498931  0.609538  0  .  1
   O  O29  1  0.999812  0.750060  0.380879  0  .  1
   O  O30  1  0.263526  0.420749  0.188482  0  .  1
   O  O31  1  0.736474  0.579251  0.688482  0  .  1
   O  O32  1  0.236474  0.920749  0.811518  0  .  1
   O  O33  1  0.753643  0.932537  0.470044  0  .  1
   O  O34  1  0.504531  0.753605  0.601657  0  .  1
   O  O35  1  0.500188  0.250060  0.880879  0  .  1
   O  O36  1  0.246357  0.067463  0.529956  0  .  1
   O  O37  1  0.746357  0.432537  0.529956  0  .  1
   O  O38  1  0.669454  0.111695  0.750000  0  .  1
   O  O39  1  0.495469  0.246395  0.101657  0  .  1
   O  O40  1  0.499812  0.749940  0.380879  0  .  1
   O  O41  1  0.763526  0.079251  0.311518  0  .  1
   O  O42  1  0.763526  0.079251  0.188482  0  .  1
   O  O43  1  0.004531  0.746395  0.601657  0  .  1
   O  O44  1  0.753643  0.932537  0.029956  0  .  1
   O  O45  1  0.253643  0.567463  0.029956  0  .  1
   O  O46  1  0.500188  0.250060  0.619121  0  .  1
   O  O47  1  0.000188  0.249940  0.880879  0  .  1
   O  O48  1  0.999812  0.750060  0.119121  0  .  1
   O  O49  1  0.004531  0.746395  0.898343  0  .  1
   O  O50  1  0.995469  0.253605  0.101657  0  .  1
   O  O51  1  0.330546  0.888305  0.250000  0  .  1
   O  O52  1  0.169454  0.388305  0.750000  0  .  1
   O  O53  1  0.253643  0.567463  0.470044  0  .  1
   O  O54  1  0.830546  0.611695  0.250000  0  .  1
   O  O55  1  0.499812  0.749940  0.119121  0  .  1
   O  O56  1  0.746357  0.432537  0.970044  0  .  1
   O  O57  1  0.995469  0.253605  0.398343  0  .  1
   O  O58  1  0.246357  0.067463  0.970044  0  .  1
   O  O59  1  0.000188  0.249940  0.619121  0  .  1
   O  O60  1  0.495469  0.246395  0.398343  0  .  1
   O  O61  1  0.504531  0.753605  0.898343  0  .  1
   O  O62  1  0.236474  0.920749  0.688482  0  .  1
   O  O63  1  0.736474  0.579251  0.811518  0  .  1
   O  O64  1  0.263526  0.420749  0.311518  0  .  1
 
