#\#CIF1.1
##########################################################################
#               Crystallographic Information Format file 
#               Produced by PyCifRW module
# 
#  This is a CIF file.  CIF has been adopted by the International
#  Union of Crystallography as the standard for data archiving and 
#  transmission.
#
#  For information on this file format, follow the CIF links at
#  http://www.iucr.org
##########################################################################

data_La4CuO8
_symmetry_space_group_name_H-M          'P 1'
_cell_length_a                          5.27671700068
_cell_length_b                          7.04592709747
_cell_length_c                          5.28760692037
_cell_angle_alpha                       112.042862732
_cell_angle_beta                        89.9993895042
_cell_angle_gamma                       89.9986354766
_chemical_name_systematic               'Generated by pymatgen'
_symmetry_Int_Tables_number             1
_chemical_formula_structural            La4CuO8
_chemical_formula_sum                   'La4 Cu1 O8'
_cell_volume                            182.219799192
_cell_formula_units_Z                   1
loop_
  _symmetry_equiv_pos_site_id
  _symmetry_equiv_pos_as_xyz
   1  'x, y, z'
 
loop_
  _atom_site_type_symbol
  _atom_site_label
  _atom_site_symmetry_multiplicity
  _atom_site_fract_x
  _atom_site_fract_y
  _atom_site_fract_z
  _atom_site_attached_hydrogens
  _atom_site_B_iso_or_equiv
  _atom_site_occupancy
   La  La1  1  -0.000010  0.268795  0.634394  0  .  1
   La  La2  1  0.999989  0.731226  0.365606  0  .  1
   La  La3  1  0.499975  0.272880  0.136454  0  .  1
   La  La4  1  0.500016  0.727106  0.863575  0  .  1
   Cu  Cu5  1  -0.000012  0.000002  0.000012  0  .  1
   O  O6  1  0.000022  0.362948  0.181412  0  .  1
   O  O7  1  0.000002  0.637056  0.818576  0  .  1
   O  O8  1  0.243806  0.000019  0.754329  0  .  1
   O  O9  1  0.243787  0.999974  0.245648  0  .  1
   O  O10  1  0.500003  0.371892  0.685783  0  .  1
   O  O11  1  0.499980  0.628104  0.314223  0  .  1
   O  O12  1  0.756217  0.000022  0.754342  0  .  1
   O  O13  1  0.756224  0.999977  0.245645  0  .  1
 
