#\#CIF1.1
##########################################################################
#               Crystallographic Information Format file 
#               Produced by PyCifRW module
# 
#  This is a CIF file.  CIF has been adopted by the International
#  Union of Crystallography as the standard for data archiving and 
#  transmission.
#
#  For information on this file format, follow the CIF links at
#  http://www.iucr.org
##########################################################################

data_La4Mn4O11
_symmetry_space_group_name_H-M          'P 1'
_cell_length_a                          7.96438968228
_cell_length_b                          7.99234638
_cell_length_c                          8.21414158984
_cell_angle_alpha                       90.0
_cell_angle_beta                        88.4528229635
_cell_angle_gamma                       90.0
_chemical_name_systematic               'Generated by pymatgen'
_symmetry_Int_Tables_number             1
_chemical_formula_structural            La4Mn4O11
_chemical_formula_sum                   'La8 Mn8 O22'
_cell_volume                            522.673672103
_cell_formula_units_Z                   2
loop_
  _symmetry_equiv_pos_site_id
  _symmetry_equiv_pos_as_xyz
   1  'x, y, z'
 
loop_
  _atom_site_type_symbol
  _atom_site_label
  _atom_site_symmetry_multiplicity
  _atom_site_fract_x
  _atom_site_fract_y
  _atom_site_fract_z
  _atom_site_attached_hydrogens
  _atom_site_B_iso_or_equiv
  _atom_site_occupancy
   La  La1  1  0.034152  0.258307  0.010770  0  .  1
   La  La2  1  0.520643  0.260094  0.031391  0  .  1
   La  La3  1  0.020643  0.239906  0.531391  0  .  1
   La  La4  1  0.467078  0.766338  0.466875  0  .  1
   La  La5  1  0.534152  0.241693  0.510770  0  .  1
   La  La6  1  0.978375  0.736380  0.484966  0  .  1
   La  La7  1  0.478375  0.763620  0.984966  0  .  1
   La  La8  1  0.967078  0.733662  0.966875  0  .  1
   Mn  Mn9  1  0.250837  0.007778  0.250424  0  .  1
   Mn  Mn10  1  0.250346  0.501255  0.250260  0  .  1
   Mn  Mn11  1  0.750219  0.000833  0.250265  0  .  1
   Mn  Mn12  1  0.752244  0.499081  0.249805  0  .  1
   Mn  Mn13  1  0.252244  0.000919  0.749805  0  .  1
   Mn  Mn14  1  0.250219  0.499167  0.750265  0  .  1
   Mn  Mn15  1  0.750346  0.998745  0.750260  0  .  1
   Mn  Mn16  1  0.750837  0.492222  0.750425  0  .  1
   O  O17  1  0.285611  0.050837  0.016601  0  .  1
   O  O18  1  0.306501  0.457843  0.994089  0  .  1
   O  O19  1  0.174829  0.237868  0.278195  0  .  1
   O  O20  1  0.295501  0.767692  0.216043  0  .  1
   O  O21  1  0.188414  0.952947  0.478806  0  .  1
   O  O22  1  0.229624  0.560272  0.505687  0  .  1
   O  O23  1  0.499683  0.040378  0.307941  0  .  1
   O  O24  1  0.509445  0.452356  0.290671  0  .  1
   O  O25  1  0.009445  0.047644  0.790671  0  .  1
   O  O26  1  0.999683  0.459622  0.807941  0  .  1
   O  O27  1  0.787515  0.253804  0.186238  0  .  1
   O  O28  1  0.287515  0.246196  0.686238  0  .  1
   O  O29  1  0.728196  0.745525  0.308274  0  .  1
   O  O30  1  0.228196  0.754475  0.808274  0  .  1
   O  O31  1  0.992787  0.552716  0.202498  0  .  1
   O  O32  1  0.492787  0.947284  0.702498  0  .  1
   O  O33  1  0.806501  0.042157  0.494089  0  .  1
   O  O34  1  0.785611  0.449163  0.516601  0  .  1
   O  O35  1  0.674829  0.262132  0.778195  0  .  1
   O  O36  1  0.795501  0.732308  0.716043  0  .  1
   O  O37  1  0.688414  0.547053  0.978806  0  .  1
   O  O38  1  0.729624  0.939728  0.005687  0  .  1
 
