#\#CIF1.1
##########################################################################
#               Crystallographic Information Format file 
#               Produced by PyCifRW module
# 
#  This is a CIF file.  CIF has been adopted by the International
#  Union of Crystallography as the standard for data archiving and 
#  transmission.
#
#  For information on this file format, follow the CIF links at
#  http://www.iucr.org
##########################################################################

data_La4NiO8
_symmetry_space_group_name_H-M          'P 1'
_cell_length_a                          5.3340672
_cell_length_b                          6.90337337776
_cell_length_c                          6.9033730593
_cell_angle_alpha                       45.4091158573
_cell_angle_beta                        90.0
_cell_angle_gamma                       90.0
_chemical_name_systematic               'Generated by pymatgen'
_symmetry_Int_Tables_number             1
_chemical_formula_structural            La4NiO8
_chemical_formula_sum                   'La4 Ni1 O8'
_cell_volume                            181.027768523
_cell_formula_units_Z                   1
loop_
  _symmetry_equiv_pos_site_id
  _symmetry_equiv_pos_as_xyz
   1  'x, y, z'
 
loop_
  _atom_site_type_symbol
  _atom_site_label
  _atom_site_symmetry_multiplicity
  _atom_site_fract_x
  _atom_site_fract_y
  _atom_site_fract_z
  _atom_site_attached_hydrogens
  _atom_site_B_iso_or_equiv
  _atom_site_occupancy
   La  La1  1  0.000000  0.133886  0.133886  0  .  1
   La  La2  1  0.000000  0.866114  0.866114  0  .  1
   La  La3  1  0.500000  0.367354  0.367354  0  .  1
   La  La4  1  0.500000  0.632646  0.632646  0  .  1
   Ni  Ni5  1  0.500000  0.000000  0.000000  0  .  1
   O  O6  1  0.000000  0.311863  0.311863  0  .  1
   O  O7  1  0.000000  0.688137  0.688137  0  .  1
   O  O8  1  0.262026  0.249197  0.750803  0  .  1
   O  O9  1  0.262026  0.750803  0.249197  0  .  1
   O  O10  1  0.500000  0.841234  0.841234  0  .  1
   O  O11  1  0.500000  0.158766  0.158766  0  .  1
   O  O12  1  0.737974  0.750803  0.249197  0  .  1
   O  O13  1  0.737974  0.249197  0.750803  0  .  1
 
