#\#CIF1.1
##########################################################################
#               Crystallographic Information Format file 
#               Produced by PyCifRW module
# 
#  This is a CIF file.  CIF has been adopted by the International
#  Union of Crystallography as the standard for data archiving and 
#  transmission.
#
#  For information on this file format, follow the CIF links at
#  http://www.iucr.org
##########################################################################

data_La4Ni3O10
_symmetry_space_group_name_H-M          'P 1'
_cell_length_a                          3.87291916618
_cell_length_b                          3.87307867489
_cell_length_c                          14.268132197
_cell_angle_alpha                       97.7978034137
_cell_angle_beta                        97.7969143733
_cell_angle_gamma                       90.0227150964
_chemical_name_systematic               'Generated by pymatgen'
_symmetry_Int_Tables_number             1
_chemical_formula_structural            La4Ni3O10
_chemical_formula_sum                   'La4 Ni3 O10'
_cell_volume                            210.045768405
_cell_formula_units_Z                   1
loop_
  _symmetry_equiv_pos_site_id
  _symmetry_equiv_pos_as_xyz
   1  'x, y, z'
 
loop_
  _atom_site_type_symbol
  _atom_site_label
  _atom_site_symmetry_multiplicity
  _atom_site_fract_x
  _atom_site_fract_y
  _atom_site_fract_z
  _atom_site_attached_hydrogens
  _atom_site_B_iso_or_equiv
  _atom_site_occupancy
   O  O1  1  0.217218  0.217209  0.434412  0  .  1
   O  O2  1  0.782781  0.782790  0.565586  0  .  1
   O  O3  1  0.860193  0.360222  0.720532  0  .  1
   O  O4  1  0.639779  0.139810  0.279465  0  .  1
   O  O5  1  0.139808  0.639778  0.279467  0  .  1
   O  O6  1  0.360222  0.860191  0.720533  0  .  1
   O  O7  1  0.068652  0.068656  0.137275  0  .  1
   O  O8  1  0.499997  -0.000002  -0.000006  0  .  1
   O  O9  1  0.931353  0.931347  0.862731  0  .  1
   O  O10  1  0.999997  0.499997  -0.000006  0  .  1
   Ni  Ni11  1  0.140434  0.140427  0.280741  0  .  1
   Ni  Ni12  1  0.859577  0.859592  0.719309  0  .  1
   Ni  Ni13  1  0.999990  0.999987  0.999969  0  .  1
   La  La14  1  0.301481  0.301475  0.602989  0  .  1
   La  La15  1  0.698520  0.698526  0.397012  0  .  1
   La  La16  1  0.432790  0.432792  0.865644  0  .  1
   La  La17  1  0.567203  0.567202  0.134347  0  .  1
 
