#\#CIF1.1
##########################################################################
#               Crystallographic Information Format file 
#               Produced by PyCifRW module
# 
#  This is a CIF file.  CIF has been adopted by the International
#  Union of Crystallography as the standard for data archiving and 
#  transmission.
#
#  For information on this file format, follow the CIF links at
#  http://www.iucr.org
##########################################################################

data_La5Cu5O13
_symmetry_space_group_name_H-M          'P 1'
_cell_length_a                          8.56540916026
_cell_length_b                          3.88753511
_cell_length_c                          8.55194144112
_cell_angle_alpha                       90.0
_cell_angle_beta                        90.2172314414
_cell_angle_gamma                       90.0
_chemical_name_systematic               'Generated by pymatgen'
_symmetry_Int_Tables_number             1
_chemical_formula_structural            La5Cu5O13
_chemical_formula_sum                   'La5 Cu5 O13'
_cell_volume                            284.763311632
_cell_formula_units_Z                   1
loop_
  _symmetry_equiv_pos_site_id
  _symmetry_equiv_pos_as_xyz
   1  'x, y, z'
 
loop_
  _atom_site_type_symbol
  _atom_site_label
  _atom_site_symmetry_multiplicity
  _atom_site_fract_x
  _atom_site_fract_y
  _atom_site_fract_z
  _atom_site_attached_hydrogens
  _atom_site_B_iso_or_equiv
  _atom_site_occupancy
   La  La1  1  0.139954  0.500000  0.273806  0  .  1
   La  La2  1  0.274076  0.500000  0.861271  0  .  1
   La  La3  1  0.500000  0.500000  0.500000  0  .  1
   La  La4  1  0.725924  0.500000  0.138729  0  .  1
   La  La5  1  0.860046  0.500000  0.726194  0  .  1
   Cu  Cu6  1  0.000000  0.000000  0.000000  0  .  1
   Cu  Cu7  1  0.168522  0.000000  0.573434  0  .  1
   Cu  Cu8  1  0.425142  0.000000  0.165955  0  .  1
   Cu  Cu9  1  0.574858  0.000000  0.834045  0  .  1
   Cu  Cu10  1  0.831478  0.000000  0.426566  0  .  1
   O  O11  1  0.000000  0.500000  0.000000  0  .  1
   O  O12  1  0.042510  0.000000  0.757252  0  .  1
   O  O13  1  0.180174  0.500000  0.570923  0  .  1
   O  O14  1  0.235735  0.000000  0.046721  0  .  1
   O  O15  1  0.299616  0.000000  0.393923  0  .  1
   O  O16  1  0.389426  0.000000  0.711269  0  .  1
   O  O17  1  0.426645  0.500000  0.176746  0  .  1
   O  O18  1  0.573355  0.500000  0.823254  0  .  1
   O  O19  1  0.610574  0.000000  0.288731  0  .  1
   O  O20  1  0.700384  0.000000  0.606077  0  .  1
   O  O21  1  0.764265  0.000000  0.953279  0  .  1
   O  O22  1  0.819826  0.500000  0.429077  0  .  1
   O  O23  1  0.957490  0.000000  0.242748  0  .  1
 
