#\#CIF1.1
##########################################################################
#               Crystallographic Information Format file 
#               Produced by PyCifRW module
# 
#  This is a CIF file.  CIF has been adopted by the International
#  Union of Crystallography as the standard for data archiving and 
#  transmission.
#
#  For information on this file format, follow the CIF links at
#  http://www.iucr.org
##########################################################################

data_La5S8
_symmetry_space_group_name_H-M          'P 1'
_cell_length_a                          7.57566233675
_cell_length_b                          7.57566260323
_cell_length_c                          7.57566210978
_cell_angle_alpha                       109.431120202
_cell_angle_beta                        109.551453344
_cell_angle_gamma                       109.431122793
_chemical_name_systematic               'Generated by pymatgen'
_symmetry_Int_Tables_number             1
_chemical_formula_structural            La5S8
_chemical_formula_sum                   'La5 S8'
_cell_volume                            334.687332304
_cell_formula_units_Z                   1
loop_
  _symmetry_equiv_pos_site_id
  _symmetry_equiv_pos_as_xyz
   1  'x, y, z'
 
loop_
  _atom_site_type_symbol
  _atom_site_label
  _atom_site_symmetry_multiplicity
  _atom_site_fract_x
  _atom_site_fract_y
  _atom_site_fract_z
  _atom_site_attached_hydrogens
  _atom_site_B_iso_or_equiv
  _atom_site_occupancy
   La  La1  1  0.244126  0.634357  0.374243  0  .  1
   La  La2  1  0.375000  0.250000  0.625000  0  .  1
   La  La3  1  0.739886  0.865643  0.109769  0  .  1
   La  La4  1  0.625757  0.369883  0.260114  0  .  1
   La  La5  1  0.890231  0.130117  0.755874  0  .  1
   S  S6  1  0.993158  0.851132  0.480798  0  .  1
   S  S7  1  0.002797  0.335492  0.483861  0  .  1
   S  S8  1  0.516139  0.018936  0.851631  0  .  1
   S  S9  1  0.148369  0.164508  0.167305  0  .  1
   S  S10  1  0.357975  0.487640  0.006842  0  .  1
   S  S11  1  0.629666  0.648868  0.642025  0  .  1
   S  S12  1  0.519202  0.012360  0.370334  0  .  1
   S  S13  1  0.832695  0.481064  0.997203  0  .  1
 
