#\#CIF1.1
##########################################################################
#               Crystallographic Information Format file 
#               Produced by PyCifRW module
# 
#  This is a CIF file.  CIF has been adopted by the International
#  Union of Crystallography as the standard for data archiving and 
#  transmission.
#
#  For information on this file format, follow the CIF links at
#  http://www.iucr.org
##########################################################################

data_La6Cu6O17
_symmetry_space_group_name_H-M          'P 1'
_cell_length_a                          6.77288577977
_cell_length_b                          6.74160682986
_cell_length_c                          10.5250925342
_cell_angle_alpha                       96.1843413424
_cell_angle_beta                        86.9256844657
_cell_angle_gamma                       119.847037921
_chemical_name_systematic               'Generated by pymatgen'
_symmetry_Int_Tables_number             1
_chemical_formula_structural            La6Cu6O17
_chemical_formula_sum                   'La6 Cu6 O17'
_cell_volume                            414.406233566
_cell_formula_units_Z                   1
loop_
  _symmetry_equiv_pos_site_id
  _symmetry_equiv_pos_as_xyz
   1  'x, y, z'
 
loop_
  _atom_site_type_symbol
  _atom_site_label
  _atom_site_symmetry_multiplicity
  _atom_site_fract_x
  _atom_site_fract_y
  _atom_site_fract_z
  _atom_site_attached_hydrogens
  _atom_site_B_iso_or_equiv
  _atom_site_occupancy
   La  La1  1  0.333205  0.692116  0.492218  0  .  1
   La  La2  1  0.000255  0.971980  0.989917  0  .  1
   La  La3  1  0.000192  0.028067  0.509994  0  .  1
   La  La4  1  0.333186  0.641128  0.007789  0  .  1
   La  La5  1  0.666485  0.305221  0.990147  0  .  1
   La  La6  1  0.666487  0.361290  0.509849  0  .  1
   Cu  Cu7  1  0.006963  0.503501  0.750021  0  .  1
   Cu  Cu8  1  0.659478  0.829833  0.750031  0  .  1
   Cu  Cu9  1  0.333507  0.166812  0.250011  0  .  1
   Cu  Cu10  1  0.333384  0.166743  0.750019  0  .  1
   Cu  Cu11  1  0.833454  0.666824  0.250084  0  .  1
   Cu  Cu12  1  0.833455  0.166694  0.249879  0  .  1
   O  O13  1  0.994598  0.681843  0.392761  0  .  1
   O  O14  1  0.333644  0.992422  0.101059  0  .  1
   O  O15  1  0.994590  0.312790  0.107188  0  .  1
   O  O16  1  0.002192  0.001028  0.249985  0  .  1
   O  O17  1  0.995418  0.997735  0.750009  0  .  1
   O  O18  1  0.333365  0.666632  0.749981  0  .  1
   O  O19  1  0.333653  0.341318  0.398932  0  .  1
   O  O20  1  0.333259  0.299538  0.913403  0  .  1
   O  O21  1  0.671795  0.020591  0.392569  0  .  1
   O  O22  1  0.333247  0.033753  0.586624  0  .  1
   O  O23  1  0.671803  0.651301  0.107439  0  .  1
   O  O24  1  0.657572  0.711215  0.583285  0  .  1
   O  O25  1  0.670844  0.335501  0.750036  0  .  1
   O  O26  1  0.664839  0.332551  0.250006  0  .  1
   O  O27  1  0.009141  0.622052  0.916886  0  .  1
   O  O28  1  0.657617  0.946427  0.916750  0  .  1
   O  O29  1  0.009171  0.387198  0.583128  0  .  1
 
