#\#CIF1.1
##########################################################################
#               Crystallographic Information Format file 
#               Produced by PyCifRW module
# 
#  This is a CIF file.  CIF has been adopted by the International
#  Union of Crystallography as the standard for data archiving and 
#  transmission.
#
#  For information on this file format, follow the CIF links at
#  http://www.iucr.org
##########################################################################

data_La6Mn5O18
_symmetry_space_group_name_H-M          'P 1'
_cell_length_a                          16.4969948833
_cell_length_b                          14.4836410886
_cell_length_c                          9.44279263551
_cell_angle_alpha                       29.9440851925
_cell_angle_beta                        56.1292669284
_cell_angle_gamma                       41.823958584
_chemical_name_systematic               'Generated by pymatgen'
_symmetry_Int_Tables_number             1
_chemical_formula_structural            La6Mn5O18
_chemical_formula_sum                   'La12 Mn10 O36'
_cell_volume                            724.034025777
_cell_formula_units_Z                   2
loop_
  _symmetry_equiv_pos_site_id
  _symmetry_equiv_pos_as_xyz
   1  'x, y, z'
 
loop_
  _atom_site_type_symbol
  _atom_site_label
  _atom_site_symmetry_multiplicity
  _atom_site_fract_x
  _atom_site_fract_y
  _atom_site_fract_z
  _atom_site_attached_hydrogens
  _atom_site_B_iso_or_equiv
  _atom_site_occupancy
   La  La1  1  0.088931  0.476693  0.785560  0  .  1
   La  La2  1  0.244402  0.523307  0.214440  0  .  1
   La  La3  1  0.091346  0.998441  0.270561  0  .  1
   La  La4  1  0.415350  0.495833  0.758453  0  .  1
   La  La5  1  0.586378  0.481155  0.282646  0  .  1
   La  La6  1  0.241987  0.001559  0.729439  0  .  1
   La  La7  1  0.419295  0.991803  0.258712  0  .  1
   La  La8  1  0.746955  0.518845  0.717354  0  .  1
   La  La9  1  0.917984  0.504167  0.241547  0  .  1
   La  La10  1  0.588242  0.003641  0.769008  0  .  1
   La  La11  1  0.745091  0.996359  0.230992  0  .  1
   La  La12  1  0.914039  0.008197  0.741288  0  .  1
   Mn  Mn13  1  0.998666  0.998209  0.010477  0  .  1
   Mn  Mn14  1  0.334667  0.001791  0.989523  0  .  1
   Mn  Mn15  1  0.004408  0.493370  0.505901  0  .  1
   Mn  Mn16  1  0.166667  0.500000  0.000000  0  .  1
   Mn  Mn17  1  0.328925  0.506630  0.494099  0  .  1
   Mn  Mn18  1  0.502500  0.495328  0.004373  0  .  1
   Mn  Mn19  1  0.666667  0.500000  0.500000  0  .  1
   Mn  Mn20  1  0.830833  0.504672  0.995627  0  .  1
   Mn  Mn21  1  0.499292  0.997467  0.508799  0  .  1
   Mn  Mn22  1  0.834041  0.002533  0.491201  0  .  1
   O  O23  1  0.239778  0.055472  0.170747  0  .  1
   O  O24  1  0.131925  0.302974  0.226862  0  .  1
   O  O25  1  0.035107  0.213876  0.755242  0  .  1
   O  O26  1  0.062417  0.567878  0.181479  0  .  1
   O  O27  1  0.323389  0.210154  0.326017  0  .  1
   O  O28  1  0.182057  0.287241  0.668393  0  .  1
   O  O29  1  0.552369  0.061764  0.210564  0  .  1
   O  O30  1  0.151276  0.712759  0.331607  0  .  1
   O  O31  1  0.467266  0.279020  0.257239  0  .  1
   O  O32  1  0.009944  0.789846  0.673983  0  .  1
   O  O33  1  0.366809  0.216257  0.750658  0  .  1
   O  O34  1  0.270917  0.432122  0.818521  0  .  1
   O  O35  1  0.388197  0.568844  0.182800  0  .  1
   O  O36  1  0.298226  0.786124  0.244758  0  .  1
   O  O37  1  0.651358  0.223278  0.321381  0  .  1
   O  O38  1  0.201409  0.697026  0.773138  0  .  1
   O  O39  1  0.493990  0.302890  0.672192  0  .  1
   O  O40  1  0.093555  0.944528  0.829253  0  .  1
   O  O41  1  0.886717  0.083473  0.167156  0  .  1
   O  O42  1  0.488820  0.714048  0.317002  0  .  1
   O  O43  1  0.800431  0.284713  0.248366  0  .  1
   O  O44  1  0.357868  0.755710  0.709512  0  .  1
   O  O45  1  0.699828  0.236084  0.724500  0  .  1
   O  O46  1  0.606408  0.425906  0.824027  0  .  1
   O  O47  1  0.726925  0.574094  0.175973  0  .  1
   O  O48  1  0.633506  0.763916  0.275500  0  .  1
   O  O49  1  0.975466  0.244290  0.290488  0  .  1
   O  O50  1  0.532902  0.715287  0.751634  0  .  1
   O  O51  1  0.844514  0.285952  0.682998  0  .  1
   O  O52  1  0.446616  0.916527  0.832844  0  .  1
   O  O53  1  0.839343  0.697110  0.327808  0  .  1
   O  O54  1  0.681975  0.776722  0.678619  0  .  1
   O  O55  1  0.945136  0.431156  0.817200  0  .  1
   O  O56  1  0.966524  0.783743  0.249342  0  .  1
   O  O57  1  0.866067  0.720980  0.742761  0  .  1
   O  O58  1  0.780965  0.938236  0.789436  0  .  1
 
