#\#CIF1.1
##########################################################################
#               Crystallographic Information Format file 
#               Produced by PyCifRW module
# 
#  This is a CIF file.  CIF has been adopted by the International
#  Union of Crystallography as the standard for data archiving and 
#  transmission.
#
#  For information on this file format, follow the CIF links at
#  http://www.iucr.org
##########################################################################

data_La7Ni3
_symmetry_space_group_name_H-M          'P 1'
_cell_length_a                          10.1094043
_cell_length_b                          10.1094040047
_cell_length_c                          6.46825108
_cell_angle_alpha                       90.0
_cell_angle_beta                        90.0
_cell_angle_gamma                       120.000000966
_chemical_name_systematic               'Generated by pymatgen'
_symmetry_Int_Tables_number             1
_chemical_formula_structural            La7Ni3
_chemical_formula_sum                   'La14 Ni6'
_cell_volume                            572.490936275
_cell_formula_units_Z                   2
loop_
  _symmetry_equiv_pos_site_id
  _symmetry_equiv_pos_as_xyz
   1  'x, y, z'
 
loop_
  _atom_site_type_symbol
  _atom_site_label
  _atom_site_symmetry_multiplicity
  _atom_site_fract_x
  _atom_site_fract_y
  _atom_site_fract_z
  _atom_site_attached_hydrogens
  _atom_site_B_iso_or_equiv
  _atom_site_occupancy
   La  La1  1  0.461800  0.538200  0.319996  0  .  1
   La  La2  1  0.333333  0.666667  0.780585  0  .  1
   La  La3  1  0.873504  0.126496  0.492119  0  .  1
   La  La4  1  0.747008  0.873504  0.992119  0  .  1
   La  La5  1  0.873504  0.747008  0.492119  0  .  1
   La  La6  1  0.076399  0.538200  0.319996  0  .  1
   La  La7  1  0.126496  0.873504  0.992119  0  .  1
   La  La8  1  0.538200  0.076399  0.819996  0  .  1
   La  La9  1  0.923601  0.461800  0.819996  0  .  1
   La  La10  1  0.666667  0.333333  0.280585  0  .  1
   La  La11  1  0.461800  0.923601  0.319996  0  .  1
   La  La12  1  0.252992  0.126496  0.492119  0  .  1
   La  La13  1  0.538200  0.461800  0.819996  0  .  1
   La  La14  1  0.126496  0.252992  0.992119  0  .  1
   Ni  Ni15  1  0.374430  0.187215  0.051357  0  .  1
   Ni  Ni16  1  0.187215  0.812785  0.551357  0  .  1
   Ni  Ni17  1  0.812785  0.625570  0.051357  0  .  1
   Ni  Ni18  1  0.187215  0.374430  0.551357  0  .  1
   Ni  Ni19  1  0.812785  0.187215  0.051357  0  .  1
   Ni  Ni20  1  0.625570  0.812785  0.551357  0  .  1
 
