#\#CIF1.1
##########################################################################
#               Crystallographic Information Format file 
#               Produced by PyCifRW module
# 
#  This is a CIF file.  CIF has been adopted by the International
#  Union of Crystallography as the standard for data archiving and 
#  transmission.
#
#  For information on this file format, follow the CIF links at
#  http://www.iucr.org
##########################################################################

data_La8Cu3O16
_symmetry_space_group_name_H-M          'P 1'
_cell_length_a                          8.42926690312
_cell_length_b                          7.54050362326
_cell_length_c                          8.8765466883
_cell_angle_alpha                       102.220542994
_cell_angle_beta                        131.589079801
_cell_angle_gamma                       63.3638102665
_chemical_name_systematic               'Generated by pymatgen'
_symmetry_Int_Tables_number             1
_chemical_formula_structural            La8Cu3O16
_chemical_formula_sum                   'La8 Cu3 O16'
_cell_volume                            374.06832376
_cell_formula_units_Z                   1
loop_
  _symmetry_equiv_pos_site_id
  _symmetry_equiv_pos_as_xyz
   1  'x, y, z'
 
loop_
  _atom_site_type_symbol
  _atom_site_label
  _atom_site_symmetry_multiplicity
  _atom_site_fract_x
  _atom_site_fract_y
  _atom_site_fract_z
  _atom_site_attached_hydrogens
  _atom_site_B_iso_or_equiv
  _atom_site_occupancy
   La  La1  1  0.053507  0.163221  0.730183  0  .  1
   La  La2  1  0.948952  0.852605  0.276302  0  .  1
   La  La3  1  0.054874  0.646859  0.725182  0  .  1
   La  La4  1  0.531666  0.405309  0.720667  0  .  1
   La  La5  1  0.536049  0.922906  0.722195  0  .  1
   La  La6  1  0.950173  0.337073  0.271652  0  .  1
   La  La7  1  0.468782  0.095553  0.278831  0  .  1
   La  La8  1  0.463526  0.578281  0.277787  0  .  1
   Cu  Cu9  1  0.499006  0.750016  -0.001009  0  .  1
   Cu  Cu10  1  0.998955  0.499361  0.999041  0  .  1
   Cu  Cu11  1  0.001078  0.998941  0.003623  0  .  1
   O  O12  1  0.253754  0.874705  0.005637  0  .  1
   O  O13  1  0.778587  0.705206  0.367769  0  .  1
   O  O14  1  0.243801  0.378670  0.998915  0  .  1
   O  O15  1  0.497131  0.993670  0.996097  0  .  1
   O  O16  1  0.775691  0.201386  0.375769  0  .  1
   O  O17  1  0.270293  0.449741  0.362838  0  .  1
   O  O18  1  0.264909  0.953405  0.367174  0  .  1
   O  O19  1  0.220661  0.298433  0.626608  0  .  1
   O  O20  1  0.755099  0.122868  0.000169  0  .  1
   O  O21  1  0.503074  0.507066  0.004062  0  .  1
   O  O22  1  0.003441  0.748472  0.002828  0  .  1
   O  O23  1  0.003009  0.248118  0.002182  0  .  1
   O  O24  1  0.217695  0.793740  0.634545  0  .  1
   O  O25  1  0.724113  0.539341  0.633072  0  .  1
   O  O26  1  0.718259  0.044358  0.635162  0  .  1
   O  O27  1  0.744988  0.626970  0.993962  0  .  1
 
