#\#CIF1.1
##########################################################################
#               Crystallographic Information Format file 
#               Produced by PyCifRW module
# 
#  This is a CIF file.  CIF has been adopted by the International
#  Union of Crystallography as the standard for data archiving and 
#  transmission.
#
#  For information on this file format, follow the CIF links at
#  http://www.iucr.org
##########################################################################

data_La8Cu7O19
_symmetry_space_group_name_H-M          'P 1'
_cell_length_a                          3.77502533144
_cell_length_b                          7.1567218375
_cell_length_c                          34.2469830682
_cell_angle_alpha                       87.1196962909
_cell_angle_beta                        86.8890668613
_cell_angle_gamma                       74.8375404476
_chemical_name_systematic               'Generated by pymatgen'
_symmetry_Int_Tables_number             1
_chemical_formula_structural            La8Cu7O19
_chemical_formula_sum                   'La16 Cu14 O38'
_cell_volume                            891.094317638
_cell_formula_units_Z                   2
loop_
  _symmetry_equiv_pos_site_id
  _symmetry_equiv_pos_as_xyz
   1  'x, y, z'
 
loop_
  _atom_site_type_symbol
  _atom_site_label
  _atom_site_symmetry_multiplicity
  _atom_site_fract_x
  _atom_site_fract_y
  _atom_site_fract_z
  _atom_site_attached_hydrogens
  _atom_site_B_iso_or_equiv
  _atom_site_occupancy
   La  La1  1  0.462065  0.944779  0.182127  0  .  1
   La  La2  1  0.342623  0.076322  0.289285  0  .  1
   La  La3  1  0.531210  0.052839  0.818530  0  .  1
   La  La4  1  0.661578  0.921453  0.711461  0  .  1
   La  La5  1  0.406573  0.443402  0.682018  0  .  1
   La  La6  1  0.705209  0.421460  0.210860  0  .  1
   La  La7  1  0.755344  0.790910  0.605584  0  .  1
   La  La8  1  0.587289  0.554917  0.318349  0  .  1
   La  La9  1  0.838750  0.294037  0.105856  0  .  1
   La  La10  1  0.560946  0.321052  0.575845  0  .  1
   La  La11  1  0.459930  0.180331  0.924261  0  .  1
   La  La12  1  0.239447  0.208880  0.394411  0  .  1
   La  La13  1  0.296939  0.575619  0.789469  0  .  1
   La  La14  1  0.539244  0.819300  0.075745  0  .  1
   La  La15  1  0.432649  0.681923  0.423915  0  .  1
   La  La16  1  0.157369  0.706203  0.894323  0  .  1
   Cu  Cu17  1  0.765771  0.990992  0.468617  0  .  1
   Cu  Cu18  1  0.027009  0.749474  0.249770  0  .  1
   Cu  Cu19  1  0.772500  0.499207  0.968900  0  .  1
   Cu  Cu20  1  0.229192  0.501982  0.031042  0  .  1
   Cu  Cu21  1  0.139713  0.619733  0.142015  0  .  1
   Cu  Cu22  1  0.233995  0.007394  0.531155  0  .  1
   Cu  Cu23  1  0.776285  0.152170  0.023004  0  .  1
   Cu  Cu24  1  0.857185  0.379162  0.858258  0  .  1
   Cu  Cu25  1  0.975097  0.247142  0.749989  0  .  1
   Cu  Cu26  1  0.951776  0.348187  0.477118  0  .  1
   Cu  Cu27  1  0.042623  0.653488  0.523049  0  .  1
   Cu  Cu28  1  0.903493  0.883576  0.358242  0  .  1
   Cu  Cu29  1  0.093801  0.118561  0.641909  0  .  1
   Cu  Cu30  1  0.220815  0.844686  0.977112  0  .  1
   O  O31  1  0.673116  0.720655  0.835102  0  .  1
   O  O32  1  0.642865  0.617501  0.142522  0  .  1
   O  O33  1  0.082496  0.677488  0.196622  0  .  1
   O  O34  1  0.670520  0.347898  0.430217  0  .  1
   O  O35  1  0.404333  0.885630  0.357728  0  .  1
   O  O36  1  0.790029  0.593440  0.730014  0  .  1
   O  O37  1  0.819231  0.442021  0.913288  0  .  1
   O  O38  1  0.444531  0.154348  0.069188  0  .  1
   O  O39  1  0.760233  0.445450  0.028185  0  .  1
   O  O40  1  0.225590  0.063543  0.471616  0  .  1
   O  O41  1  0.216461  0.405320  0.270115  0  .  1
   O  O42  1  0.760448  0.220385  0.334868  0  .  1
   O  O43  1  0.240654  0.555350  0.971811  0  .  1
   O  O44  1  0.179491  0.556168  0.086803  0  .  1
   O  O45  1  0.770178  0.936403  0.528760  0  .  1
   O  O46  1  0.525324  0.749634  0.250192  0  .  1
   O  O47  1  0.325262  0.654551  0.569723  0  .  1
   O  O48  1  0.077835  0.367280  0.529713  0  .  1
   O  O49  1  0.594432  0.116651  0.642521  0  .  1
   O  O50  1  0.977301  0.127774  0.969482  0  .  1
   O  O51  1  0.171782  0.055812  0.586912  0  .  1
   O  O52  1  0.918349  0.633937  0.469444  0  .  1
   O  O53  1  0.825663  0.943458  0.412995  0  .  1
   O  O54  1  0.473804  0.247095  0.750472  0  .  1
   O  O55  1  0.024594  0.867294  0.030283  0  .  1
   O  O56  1  0.890593  0.464932  0.628463  0  .  1
   O  O57  1  0.321559  0.279774  0.165209  0  .  1
   O  O58  1  0.099898  0.534676  0.371645  0  .  1
   O  O59  1  0.552130  0.842509  0.930529  0  .  1
   O  O60  1  0.916797  0.318908  0.803252  0  .  1
   O  O61  1  0.355665  0.380971  0.857599  0  .  1
   O  O62  1  0.230032  0.775670  0.665119  0  .  1
   O  O63  1  0.117116  0.902063  0.769636  0  .  1
   O  O64  1  0.992413  0.034351  0.870971  0  .  1
   O  O65  1  0.884750  0.095065  0.229739  0  .  1
   O  O66  1  0.005898  0.963927  0.128838  0  .  1
   O  O67  1  0.039334  0.178500  0.696585  0  .  1
   O  O68  1  0.960240  0.822064  0.303464  0  .  1
 
