#\#CIF1.1
##########################################################################
#               Crystallographic Information Format file 
#               Produced by PyCifRW module
# 
#  This is a CIF file.  CIF has been adopted by the International
#  Union of Crystallography as the standard for data archiving and 
#  transmission.
#
#  For information on this file format, follow the CIF links at
#  http://www.iucr.org
##########################################################################

data_La9Ni5O19
_symmetry_space_group_name_H-M          'P 1'
_cell_length_a                          5.44748223675
_cell_length_b                          6.80831888225
_cell_length_c                          14.2821558157
_cell_angle_alpha                       85.6243459167
_cell_angle_beta                        100.994185844
_cell_angle_gamma                       113.58198237
_chemical_name_systematic               'Generated by pymatgen'
_symmetry_Int_Tables_number             1
_chemical_formula_structural            La9Ni5O19
_chemical_formula_sum                   'La9 Ni5 O19'
_cell_volume                            476.553514785
_cell_formula_units_Z                   1
loop_
  _symmetry_equiv_pos_site_id
  _symmetry_equiv_pos_as_xyz
   1  'x, y, z'
 
loop_
  _atom_site_type_symbol
  _atom_site_label
  _atom_site_symmetry_multiplicity
  _atom_site_fract_x
  _atom_site_fract_y
  _atom_site_fract_z
  _atom_site_attached_hydrogens
  _atom_site_B_iso_or_equiv
  _atom_site_occupancy
   La  La1  1  0.403318  0.806637  0.000000  0  .  1
   La  La2  1  0.944373  0.710755  0.177989  0  .  1
   La  La3  1  0.838662  0.277581  0.399742  0  .  1
   La  La4  1  0.238406  0.268368  0.208442  0  .  1
   La  La5  1  0.562171  0.721087  0.403256  0  .  1
   La  La6  1  0.438920  0.277581  0.600258  0  .  1
   La  La7  1  0.158916  0.721087  0.596744  0  .  1
   La  La8  1  0.766382  0.710755  0.822011  0  .  1
   La  La9  1  0.029963  0.268368  0.791558  0  .  1
   Ni  Ni10  1  0.609772  0.018886  0.200657  0  .  1
   Ni  Ni11  1  0.006874  0.013747  0.000000  0  .  1
   Ni  Ni12  1  0.192788  0.985799  0.399778  0  .  1
   Ni  Ni13  1  0.793010  0.985799  0.600222  0  .  1
   Ni  Ni14  1  0.409114  0.018886  0.799343  0  .  1
   O  O15  1  0.844185  0.688370  0.000000  0  .  1
   O  O16  1  0.826960  0.025769  0.105985  0  .  1
   O  O17  1  0.881678  0.961667  0.299683  0  .  1
   O  O18  1  0.304795  0.025769  0.105985  0  .  1
   O  O19  1  0.793670  0.353469  0.233870  0  .  1
   O  O20  1  0.379672  0.961667  0.299683  0  .  1
   O  O21  1  0.397226  0.627712  0.166739  0  .  1
   O  O22  1  0.508018  0.016037  0.500000  0  .  1
   O  O23  1  0.981428  0.348398  0.614458  0  .  1
   O  O24  1  0.366970  0.348398  0.385542  0  .  1
   O  O25  1  0.008018  0.016037  0.500000  0  .  1
   O  O26  1  0.033610  0.642108  0.425111  0  .  1
   O  O27  1  0.581995  0.961667  0.700317  0  .  1
   O  O28  1  0.608499  0.642108  0.574889  0  .  1
   O  O29  1  0.720975  0.025769  0.894015  0  .  1
   O  O30  1  0.079989  0.961667  0.700317  0  .  1
   O  O31  1  0.559799  0.353469  0.766130  0  .  1
   O  O32  1  0.198810  0.025769  0.894015  0  .  1
   O  O33  1  0.230487  0.627712  0.833261  0  .  1
 
