#\#CIF1.1
##########################################################################
#               Crystallographic Information Format file 
#               Produced by PyCifRW module
# 
#  This is a CIF file.  CIF has been adopted by the International
#  Union of Crystallography as the standard for data archiving and 
#  transmission.
#
#  For information on this file format, follow the CIF links at
#  http://www.iucr.org
##########################################################################

data_LaCoO3
_symmetry_space_group_name_H-M          'P 1'
_cell_length_a                          5.52917740118
_cell_length_b                          5.45441182511
_cell_length_c                          5.49402770875
_cell_angle_alpha                       60.6164885895
_cell_angle_beta                        61.6860997915
_cell_angle_gamma                       61.1788533335
_chemical_name_systematic               'Generated by pymatgen'
_symmetry_Int_Tables_number             1
_chemical_formula_structural            LaCoO3
_chemical_formula_sum                   'La2 Co2 O6'
_cell_volume                            120.200304595
_cell_formula_units_Z                   2
loop_
  _symmetry_equiv_pos_site_id
  _symmetry_equiv_pos_as_xyz
   1  'x, y, z'
 
loop_
  _atom_site_type_symbol
  _atom_site_label
  _atom_site_symmetry_multiplicity
  _atom_site_fract_x
  _atom_site_fract_y
  _atom_site_fract_z
  _atom_site_attached_hydrogens
  _atom_site_B_iso_or_equiv
  _atom_site_occupancy
   La  La1  1  0.753340  0.748650  0.247724  0  .  1
   La  La2  1  0.246657  0.251349  0.752273  0  .  1
   Co  Co3  1  0.500000  0.500001  0.000000  0  .  1
   Co  Co4  1  0.000000  0.000001  0.500000  0  .  1
   O  O5  1  0.243841  0.690122  0.319154  0  .  1
   O  O6  1  0.756164  0.309881  0.680845  0  .  1
   O  O7  1  0.828194  0.248631  0.182955  0  .  1
   O  O8  1  0.171805  0.751365  0.817046  0  .  1
   O  O9  1  0.667181  0.804432  0.760503  0  .  1
   O  O10  1  0.332819  0.195569  0.239498  0  .  1
 
