#\#CIF1.1
##########################################################################
#               Crystallographic Information Format file 
#               Produced by PyCifRW module
# 
#  This is a CIF file.  CIF has been adopted by the International
#  Union of Crystallography as the standard for data archiving and 
#  transmission.
#
#  For information on this file format, follow the CIF links at
#  http://www.iucr.org
##########################################################################

data_LaCrO3
_symmetry_space_group_name_H-M          'P 1'
_cell_length_a                          5.52896727945
_cell_length_b                          5.52896727927
_cell_length_c                          5.52896728411
_cell_angle_alpha                       61.1124494855
_cell_angle_beta                        61.1124494908
_cell_angle_gamma                       61.1124494946
_chemical_name_systematic               'Generated by pymatgen'
_symmetry_Int_Tables_number             1
_chemical_formula_structural            LaCrO3
_chemical_formula_sum                   'La2 Cr2 O6'
_cell_volume                            122.505983486
_cell_formula_units_Z                   2
loop_
  _symmetry_equiv_pos_site_id
  _symmetry_equiv_pos_as_xyz
   1  'x, y, z'
 
loop_
  _atom_site_type_symbol
  _atom_site_label
  _atom_site_symmetry_multiplicity
  _atom_site_fract_x
  _atom_site_fract_y
  _atom_site_fract_z
  _atom_site_attached_hydrogens
  _atom_site_B_iso_or_equiv
  _atom_site_occupancy
   O  O1  1  0.175631  0.750000  0.324369  0  .  1
   O  O2  1  0.750000  0.324369  0.175631  0  .  1
   O  O3  1  0.324369  0.175631  0.750000  0  .  1
   O  O4  1  0.824369  0.250000  0.675631  0  .  1
   O  O5  1  0.675631  0.824369  0.250000  0  .  1
   O  O6  1  0.250000  0.675631  0.824369  0  .  1
   Cr  Cr7  1  0.500000  0.500000  0.500000  0  .  1
   Cr  Cr8  1  0.000000  0.000000  0.000000  0  .  1
   La  La9  1  0.750000  0.750000  0.750000  0  .  1
   La  La10  1  0.250000  0.250000  0.250000  0  .  1
 
