#\#CIF1.1
##########################################################################
#               Crystallographic Information Format file 
#               Produced by PyCifRW module
# 
#  This is a CIF file.  CIF has been adopted by the International
#  Union of Crystallography as the standard for data archiving and 
#  transmission.
#
#  For information on this file format, follow the CIF links at
#  http://www.iucr.org
##########################################################################

data_LaCuS2
_symmetry_space_group_name_H-M          'P 1'
_cell_length_a                          6.60557440751
_cell_length_b                          6.94595598751
_cell_length_c                          7.31786381
_cell_angle_alpha                       90.0
_cell_angle_beta                        90.0
_cell_angle_gamma                       97.8920570692
_chemical_name_systematic               'Generated by pymatgen'
_symmetry_Int_Tables_number             1
_chemical_formula_structural            LaCuS2
_chemical_formula_sum                   'La4 Cu4 S8'
_cell_volume                            332.578306847
_cell_formula_units_Z                   4
loop_
  _symmetry_equiv_pos_site_id
  _symmetry_equiv_pos_as_xyz
   1  'x, y, z'
 
loop_
  _atom_site_type_symbol
  _atom_site_label
  _atom_site_symmetry_multiplicity
  _atom_site_fract_x
  _atom_site_fract_y
  _atom_site_fract_z
  _atom_site_attached_hydrogens
  _atom_site_B_iso_or_equiv
  _atom_site_occupancy
   S  S1  1  0.909736  0.000732  0.726876  0  .  1
   S  S2  1  0.090264  0.499268  0.226876  0  .  1
   S  S3  1  0.090264  0.999268  0.273124  0  .  1
   S  S4  1  0.909736  0.500732  0.773124  0  .  1
   S  S5  1  0.586721  0.778365  0.116963  0  .  1
   S  S6  1  0.586721  0.278365  0.383037  0  .  1
   S  S7  1  0.413279  0.221635  0.883037  0  .  1
   S  S8  1  0.413279  0.721635  0.616963  0  .  1
   Cu  Cu9  1  0.572029  0.043505  0.666132  0  .  1
   Cu  Cu10  1  0.427971  0.956495  0.333868  0  .  1
   Cu  Cu11  1  0.427971  0.456495  0.166132  0  .  1
   Cu  Cu12  1  0.572029  0.543505  0.833868  0  .  1
   La  La13  1  0.189772  0.799462  0.947658  0  .  1
   La  La14  1  0.810228  0.700538  0.447658  0  .  1
   La  La15  1  0.810228  0.200538  0.052342  0  .  1
   La  La16  1  0.189772  0.299462  0.552342  0  .  1
 
