#\#CIF1.1
##########################################################################
#               Crystallographic Information Format file 
#               Produced by PyCifRW module
# 
#  This is a CIF file.  CIF has been adopted by the International
#  Union of Crystallography as the standard for data archiving and 
#  transmission.
#
#  For information on this file format, follow the CIF links at
#  http://www.iucr.org
##########################################################################

data_LaNi3
_symmetry_space_group_name_H-M          'P 1'
_cell_length_a                          8.82774034892
_cell_length_b                          8.82774034797
_cell_length_c                          8.82774034524
_cell_angle_alpha                       33.1810959184
_cell_angle_beta                        33.1810958923
_cell_angle_gamma                       33.1810959406
_chemical_name_systematic               'Generated by pymatgen'
_symmetry_Int_Tables_number             1
_chemical_formula_structural            LaNi3
_chemical_formula_sum                   'La3 Ni9'
_cell_volume                            183.423390158
_cell_formula_units_Z                   3
loop_
  _symmetry_equiv_pos_site_id
  _symmetry_equiv_pos_as_xyz
   1  'x, y, z'
 
loop_
  _atom_site_type_symbol
  _atom_site_label
  _atom_site_symmetry_multiplicity
  _atom_site_fract_x
  _atom_site_fract_y
  _atom_site_fract_z
  _atom_site_attached_hydrogens
  _atom_site_B_iso_or_equiv
  _atom_site_occupancy
   Ni  Ni1  1  0.419865  0.419865  0.917991  0  .  1
   Ni  Ni2  1  0.419865  0.917991  0.419865  0  .  1
   Ni  Ni3  1  0.917991  0.419865  0.419865  0  .  1
   Ni  Ni4  1  0.500000  0.500000  0.500000  0  .  1
   Ni  Ni5  1  0.332404  0.332404  0.332404  0  .  1
   Ni  Ni6  1  0.667596  0.667596  0.667596  0  .  1
   Ni  Ni7  1  0.580135  0.082009  0.580135  0  .  1
   Ni  Ni8  1  0.580135  0.580135  0.082009  0  .  1
   Ni  Ni9  1  0.082009  0.580135  0.580135  0  .  1
   La  La10  1  0.861863  0.861863  0.861863  0  .  1
   La  La11  1  0.138137  0.138137  0.138137  0  .  1
   La  La12  1  0.000000  0.000000  0.000000  0  .  1
 
