#\#CIF1.1
##########################################################################
#               Crystallographic Information Format file 
#               Produced by PyCifRW module
# 
#  This is a CIF file.  CIF has been adopted by the International
#  Union of Crystallography as the standard for data archiving and 
#  transmission.
#
#  For information on this file format, follow the CIF links at
#  http://www.iucr.org
##########################################################################

data_LaNi2
_symmetry_space_group_name_H-M          'P 1'
_cell_length_a                          5.19831203702
_cell_length_b                          5.19831203471
_cell_length_c                          5.19831203
_cell_angle_alpha                       59.9999999663
_cell_angle_beta                        59.9999999811
_cell_angle_gamma                       59.9999999359
_chemical_name_systematic               'Generated by pymatgen'
_symmetry_Int_Tables_number             1
_chemical_formula_structural            LaNi2
_chemical_formula_sum                   'La2 Ni4'
_cell_volume                            99.3280790451
_cell_formula_units_Z                   2
loop_
  _symmetry_equiv_pos_site_id
  _symmetry_equiv_pos_as_xyz
   1  'x, y, z'
 
loop_
  _atom_site_type_symbol
  _atom_site_label
  _atom_site_symmetry_multiplicity
  _atom_site_fract_x
  _atom_site_fract_y
  _atom_site_fract_z
  _atom_site_attached_hydrogens
  _atom_site_B_iso_or_equiv
  _atom_site_occupancy
   Ni  Ni1  1  0.500000  0.000000  0.500000  0  .  1
   Ni  Ni2  1  0.000000  0.500000  0.500000  0  .  1
   Ni  Ni3  1  0.500000  0.500000  0.500000  0  .  1
   Ni  Ni4  1  0.500000  0.500000  0.000000  0  .  1
   La  La5  1  0.125000  0.125000  0.125000  0  .  1
   La  La6  1  0.875000  0.875000  0.875000  0  .  1
 
