#\#CIF1.1
##########################################################################
#               Crystallographic Information Format file 
#               Produced by PyCifRW module
# 
#  This is a CIF file.  CIF has been adopted by the International
#  Union of Crystallography as the standard for data archiving and 
#  transmission.
#
#  For information on this file format, follow the CIF links at
#  http://www.iucr.org
##########################################################################

data_LaO3
_symmetry_space_group_name_H-M          'P 1'
_cell_length_a                          4.66129323765
_cell_length_b                          8.80805634418
_cell_length_c                          4.88003253645
_cell_angle_alpha                       59.9492419436
_cell_angle_beta                        116.693527629
_cell_angle_gamma                       120.432622435
_chemical_name_systematic               'Generated by pymatgen'
_symmetry_Int_Tables_number             1
_chemical_formula_structural            LaO3
_chemical_formula_sum                   'La2 O6'
_cell_volume                            144.308310425
_cell_formula_units_Z                   2
loop_
  _symmetry_equiv_pos_site_id
  _symmetry_equiv_pos_as_xyz
   1  'x, y, z'
 
loop_
  _atom_site_type_symbol
  _atom_site_label
  _atom_site_symmetry_multiplicity
  _atom_site_fract_x
  _atom_site_fract_y
  _atom_site_fract_z
  _atom_site_attached_hydrogens
  _atom_site_B_iso_or_equiv
  _atom_site_occupancy
   La  La1  1  0.380421  0.737071  0.281112  0  .  1
   La  La2  1  0.630863  0.264887  0.719140  0  .  1
   O  O3  1  0.349726  0.958248  0.766555  0  .  1
   O  O4  1  0.291063  0.391801  0.800131  0  .  1
   O  O5  1  0.904144  0.655102  0.497454  0  .  1
   O  O6  1  0.721099  0.610965  0.198798  0  .  1
   O  O7  1  0.643910  0.044141  0.232995  0  .  1
   O  O8  1  0.107539  0.347301  0.501819  0  .  1
 
