#\#CIF1.1
##########################################################################
#               Crystallographic Information Format file 
#               Produced by PyCifRW module
# 
#  This is a CIF file.  CIF has been adopted by the International
#  Union of Crystallography as the standard for data archiving and 
#  transmission.
#
#  For information on this file format, follow the CIF links at
#  http://www.iucr.org
##########################################################################

data_LaV3O9
_symmetry_space_group_name_H-M          'P 1'
_cell_length_a                          5.07218420224
_cell_length_b                          7.51623301675
_cell_length_c                          9.63075951
_cell_angle_alpha                       90.0
_cell_angle_beta                        90.0
_cell_angle_gamma                       99.8037094134
_chemical_name_systematic               'Generated by pymatgen'
_symmetry_Int_Tables_number             1
_chemical_formula_structural            LaV3O9
_chemical_formula_sum                   'La2 V6 O18'
_cell_volume                            361.798675211
_cell_formula_units_Z                   2
loop_
  _symmetry_equiv_pos_site_id
  _symmetry_equiv_pos_as_xyz
   1  'x, y, z'
 
loop_
  _atom_site_type_symbol
  _atom_site_label
  _atom_site_symmetry_multiplicity
  _atom_site_fract_x
  _atom_site_fract_y
  _atom_site_fract_z
  _atom_site_attached_hydrogens
  _atom_site_B_iso_or_equiv
  _atom_site_occupancy
   O  O1  1  0.066993  0.349504  0.250000  0  .  1
   O  O2  1  0.933007  0.650496  0.750000  0  .  1
   O  O3  1  0.723128  0.726426  0.250000  0  .  1
   O  O4  1  0.276872  0.273574  0.750000  0  .  1
   O  O5  1  0.387310  0.560131  0.591893  0  .  1
   O  O6  1  0.612690  0.439869  0.091893  0  .  1
   O  O7  1  0.612690  0.439869  0.408107  0  .  1
   O  O8  1  0.387310  0.560131  0.908107  0  .  1
   O  O9  1  0.781018  0.854061  0.987840  0  .  1
   O  O10  1  0.218982  0.145939  0.487840  0  .  1
   O  O11  1  0.218982  0.145939  0.012160  0  .  1
   O  O12  1  0.781018  0.854061  0.512160  0  .  1
   O  O13  1  0.382481  0.877682  0.750000  0  .  1
   O  O14  1  0.617519  0.122318  0.250000  0  .  1
   O  O15  1  0.713326  0.214023  0.889160  0  .  1
   O  O16  1  0.286674  0.785977  0.389160  0  .  1
   O  O17  1  0.286674  0.785977  0.110840  0  .  1
   O  O18  1  0.713326  0.214023  0.610840  0  .  1
   V  V19  1  0.737550  0.347448  0.250000  0  .  1
   V  V20  1  0.262450  0.652552  0.750000  0  .  1
   V  V21  1  0.439975  0.300670  0.572459  0  .  1
   V  V22  1  0.560025  0.699330  0.072459  0  .  1
   V  V23  1  0.560025  0.699330  0.427541  0  .  1
   V  V24  1  0.439975  0.300670  0.927541  0  .  1
   La  La25  1  0.085310  0.000858  0.250000  0  .  1
   La  La26  1  0.914690  0.999142  0.750000  0  .  1
 
