#\#CIF1.1
##########################################################################
#               Crystallographic Information Format file 
#               Produced by PyCifRW module
# 
#  This is a CIF file.  CIF has been adopted by the International
#  Union of Crystallography as the standard for data archiving and 
#  transmission.
#
#  For information on this file format, follow the CIF links at
#  http://www.iucr.org
##########################################################################

data_LaVO4
_symmetry_space_group_name_H-M          'P 1'
_cell_length_a                          6.26770867995
_cell_length_b                          6.26770867891
_cell_length_c                          6.26770867767
_cell_angle_alpha                       106.091153212
_cell_angle_beta                        106.09115319
_cell_angle_gamma                       116.466046736
_chemical_name_systematic               'Generated by pymatgen'
_symmetry_Int_Tables_number             1
_chemical_formula_structural            LaVO4
_chemical_formula_sum                   'La2 V2 O8'
_cell_volume                            187.398023892
_cell_formula_units_Z                   2
loop_
  _symmetry_equiv_pos_site_id
  _symmetry_equiv_pos_as_xyz
   1  'x, y, z'
 
loop_
  _atom_site_type_symbol
  _atom_site_label
  _atom_site_symmetry_multiplicity
  _atom_site_fract_x
  _atom_site_fract_y
  _atom_site_fract_z
  _atom_site_attached_hydrogens
  _atom_site_B_iso_or_equiv
  _atom_site_occupancy
   O  O1  1  0.794019  0.722026  0.428008  0  .  1
   O  O2  1  0.366011  0.794019  0.571992  0  .  1
   O  O3  1  0.722026  0.794019  0.928008  0  .  1
   O  O4  1  0.794019  0.366011  0.071992  0  .  1
   O  O5  1  0.633989  0.205981  0.428008  0  .  1
   O  O6  1  0.205981  0.277974  0.571992  0  .  1
   O  O7  1  0.205981  0.633989  0.928008  0  .  1
   O  O8  1  0.277974  0.205981  0.071992  0  .  1
   V  V9  1  0.375000  0.625000  0.750000  0  .  1
   V  V10  1  0.625000  0.375000  0.250000  0  .  1
   La  La11  1  0.125000  0.875000  0.250000  0  .  1
   La  La12  1  0.875000  0.125000  0.750000  0  .  1
 
