#\#CIF1.1
##########################################################################
#               Crystallographic Information Format file 
#               Produced by PyCifRW module
# 
#  This is a CIF file.  CIF has been adopted by the International
#  Union of Crystallography as the standard for data archiving and 
#  transmission.
#
#  For information on this file format, follow the CIF links at
#  http://www.iucr.org
##########################################################################

data_Li(CoO2)3
_symmetry_space_group_name_H-M          'P 1'
_cell_length_a                          4.85827815601
_cell_length_b                          4.85393555451
_cell_length_c                          5.17055285285
_cell_angle_alpha                       99.0709816286
_cell_angle_beta                        108.362847106
_cell_angle_gamma                       59.9703970509
_chemical_name_systematic               'Generated by pymatgen'
_symmetry_Int_Tables_number             1
_chemical_formula_structural            Li(CoO2)3
_chemical_formula_sum                   'Li1 Co3 O6'
_cell_volume                            100.188394093
_cell_formula_units_Z                   1
loop_
  _symmetry_equiv_pos_site_id
  _symmetry_equiv_pos_as_xyz
   1  'x, y, z'
 
loop_
  _atom_site_type_symbol
  _atom_site_label
  _atom_site_symmetry_multiplicity
  _atom_site_fract_x
  _atom_site_fract_y
  _atom_site_fract_z
  _atom_site_attached_hydrogens
  _atom_site_B_iso_or_equiv
  _atom_site_occupancy
   Li  Li1  1  0.666667  0.666667  0.000000  0  .  1
   Co  Co2  1  0.499211  0.001580  0.500000  0  .  1
   Co  Co3  1  0.166667  0.666667  0.500000  0  .  1
   Co  Co4  1  0.834123  0.331753  0.500000  0  .  1
   O  O5  1  0.237157  0.994496  0.698258  0  .  1
   O  O6  1  0.096177  0.338837  0.301742  0  .  1
   O  O7  1  0.768348  0.994496  0.301742  0  .  1
   O  O8  1  0.564985  0.338837  0.698258  0  .  1
   O  O9  1  0.436670  0.666667  0.303771  0  .  1
   O  O10  1  0.896663  0.666667  0.696229  0  .  1
 
