#\#CIF1.1
##########################################################################
#               Crystallographic Information Format file 
#               Produced by PyCifRW module
# 
#  This is a CIF file.  CIF has been adopted by the International
#  Union of Crystallography as the standard for data archiving and 
#  transmission.
#
#  For information on this file format, follow the CIF links at
#  http://www.iucr.org
##########################################################################

data_Li(CoO2)4
_symmetry_space_group_name_H-M          'P 1'
_cell_length_a                          5.63594306427
_cell_length_b                          5.71382576128
_cell_length_c                          5.71382613878
_cell_angle_alpha                       59.9999939898
_cell_angle_beta                        120.458185756
_cell_angle_gamma                       120.458195777
_chemical_name_systematic               'Generated by pymatgen'
_symmetry_Int_Tables_number             1
_chemical_formula_structural            Li(CoO2)4
_chemical_formula_sum                   'Li1 Co4 O8'
_cell_volume                            129.200111656
_cell_formula_units_Z                   1
loop_
  _symmetry_equiv_pos_site_id
  _symmetry_equiv_pos_as_xyz
   1  'x, y, z'
 
loop_
  _atom_site_type_symbol
  _atom_site_label
  _atom_site_symmetry_multiplicity
  _atom_site_fract_x
  _atom_site_fract_y
  _atom_site_fract_z
  _atom_site_attached_hydrogens
  _atom_site_B_iso_or_equiv
  _atom_site_occupancy
   Li  Li1  1  0.500000  0.000000  0.500000  0  .  1
   Co  Co2  1  0.500000  0.500000  0.500000  0  .  1
   Co  Co3  1  0.500000  0.500000  0.000000  0  .  1
   Co  Co4  1  0.000000  0.500000  0.000000  0  .  1
   Co  Co5  1  0.500000  0.000000  0.000000  0  .  1
   O  O6  1  0.730736  0.710656  0.760040  0  .  1
   O  O7  1  0.704494  0.734832  0.234832  0  .  1
   O  O8  1  0.269264  0.739960  0.789344  0  .  1
   O  O9  1  0.730736  0.260040  0.760040  0  .  1
   O  O10  1  0.269264  0.739960  0.239960  0  .  1
   O  O11  1  0.730736  0.260040  0.210656  0  .  1
   O  O12  1  0.295506  0.265168  0.765168  0  .  1
   O  O13  1  0.269264  0.289344  0.239960  0  .  1
 
