#\#CIF1.1
##########################################################################
#               Crystallographic Information Format file 
#               Produced by PyCifRW module
# 
#  This is a CIF file.  CIF has been adopted by the International
#  Union of Crystallography as the standard for data archiving and 
#  transmission.
#
#  For information on this file format, follow the CIF links at
#  http://www.iucr.org
##########################################################################

data_Li(CuO)2
_symmetry_space_group_name_H-M          'P 1'
_cell_length_a                          2.88433413
_cell_length_b                          5.73093843
_cell_length_c                          12.58707291
_cell_angle_alpha                       90.0
_cell_angle_beta                        90.0
_cell_angle_gamma                       90.0
_chemical_name_systematic               'Generated by pymatgen'
_symmetry_Int_Tables_number             1
_chemical_formula_structural            Li(CuO)2
_chemical_formula_sum                   'Li4 Cu8 O8'
_cell_volume                            208.063576474
_cell_formula_units_Z                   4
loop_
  _symmetry_equiv_pos_site_id
  _symmetry_equiv_pos_as_xyz
   1  'x, y, z'
 
loop_
  _atom_site_type_symbol
  _atom_site_label
  _atom_site_symmetry_multiplicity
  _atom_site_fract_x
  _atom_site_fract_y
  _atom_site_fract_z
  _atom_site_attached_hydrogens
  _atom_site_B_iso_or_equiv
  _atom_site_occupancy
   Li  Li1  1  0.750000  0.866760  0.427761  0  .  1
   Li  Li2  1  0.250000  0.133240  0.572239  0  .  1
   Li  Li3  1  0.750000  0.366760  0.072239  0  .  1
   Li  Li4  1  0.250000  0.633240  0.927761  0  .  1
   O  O5  1  0.750000  0.385204  0.609731  0  .  1
   O  O6  1  0.250000  0.114796  0.109731  0  .  1
   O  O7  1  0.750000  0.885204  0.890269  0  .  1
   O  O8  1  0.250000  0.633556  0.093047  0  .  1
   O  O9  1  0.750000  0.366444  0.906953  0  .  1
   O  O10  1  0.250000  0.133556  0.406953  0  .  1
   O  O11  1  0.250000  0.614796  0.390269  0  .  1
   O  O12  1  0.750000  0.866444  0.593047  0  .  1
   Cu  Cu13  1  0.250000  0.623828  0.600198  0  .  1
   Cu  Cu14  1  0.250000  0.123828  0.899802  0  .  1
   Cu  Cu15  1  0.750000  0.876172  0.100198  0  .  1
   Cu  Cu16  1  0.250000  0.620494  0.242397  0  .  1
   Cu  Cu17  1  0.750000  0.379506  0.757603  0  .  1
   Cu  Cu18  1  0.250000  0.120494  0.257603  0  .  1
   Cu  Cu19  1  0.750000  0.879506  0.742397  0  .  1
   Cu  Cu20  1  0.750000  0.376172  0.399802  0  .  1
 
