#\#CIF1.1
##########################################################################
#               Crystallographic Information Format file 
#               Produced by PyCifRW module
# 
#  This is a CIF file.  CIF has been adopted by the International
#  Union of Crystallography as the standard for data archiving and 
#  transmission.
#
#  For information on this file format, follow the CIF links at
#  http://www.iucr.org
##########################################################################

data_Li(NiS)2
_symmetry_space_group_name_H-M          'P 1'
_cell_length_a                          6.94232792516
_cell_length_b                          5.99795755
_cell_length_c                          7.48384048895
_cell_angle_alpha                       90.0
_cell_angle_beta                        117.598976569
_cell_angle_gamma                       90.0
_chemical_name_systematic               'Generated by pymatgen'
_symmetry_Int_Tables_number             1
_chemical_formula_structural            Li(NiS)2
_chemical_formula_sum                   'Li4 Ni8 S8'
_cell_volume                            276.166241392
_cell_formula_units_Z                   4
loop_
  _symmetry_equiv_pos_site_id
  _symmetry_equiv_pos_as_xyz
   1  'x, y, z'
 
loop_
  _atom_site_type_symbol
  _atom_site_label
  _atom_site_symmetry_multiplicity
  _atom_site_fract_x
  _atom_site_fract_y
  _atom_site_fract_z
  _atom_site_attached_hydrogens
  _atom_site_B_iso_or_equiv
  _atom_site_occupancy
   Li  Li1  1  0.259178  0.494605  0.000587  0  .  1
   Li  Li2  1  0.259178  0.005395  0.500587  0  .  1
   Li  Li3  1  0.740822  0.994605  0.499413  0  .  1
   Li  Li4  1  0.740822  0.505395  0.999413  0  .  1
   Ni  Ni5  1  0.066906  0.641683  0.638518  0  .  1
   Ni  Ni6  1  0.066906  0.858317  0.138518  0  .  1
   Ni  Ni7  1  0.432707  0.143521  0.863111  0  .  1
   Ni  Ni8  1  0.432707  0.356479  0.363111  0  .  1
   Ni  Ni9  1  0.567293  0.643521  0.636889  0  .  1
   Ni  Ni10  1  0.567293  0.856479  0.136889  0  .  1
   Ni  Ni11  1  0.933094  0.141683  0.861482  0  .  1
   Ni  Ni12  1  0.933094  0.358317  0.361482  0  .  1
   S  S13  1  0.095122  0.271167  0.687410  0  .  1
   S  S14  1  0.095122  0.228833  0.187410  0  .  1
   S  S15  1  0.402859  0.772852  0.809761  0  .  1
   S  S16  1  0.402859  0.727148  0.309761  0  .  1
   S  S17  1  0.597141  0.272852  0.690239  0  .  1
   S  S18  1  0.597141  0.227148  0.190239  0  .  1
   S  S19  1  0.904878  0.771167  0.812590  0  .  1
   S  S20  1  0.904878  0.728833  0.312590  0  .  1
 
