#\#CIF1.1
##########################################################################
#               Crystallographic Information Format file 
#               Produced by PyCifRW module
# 
#  This is a CIF file.  CIF has been adopted by the International
#  Union of Crystallography as the standard for data archiving and 
#  transmission.
#
#  For information on this file format, follow the CIF links at
#  http://www.iucr.org
##########################################################################

data_Li10Mn21O48
_symmetry_space_group_name_H-M          'P 1'
_cell_length_a                          5.86786450181
_cell_length_b                          5.8547389552
_cell_length_c                          35.0456476146
_cell_angle_alpha                       59.9218292347
_cell_angle_beta                        60.5086631463
_cell_angle_gamma                       60.0739678074
_chemical_name_systematic               'Generated by pymatgen'
_symmetry_Int_Tables_number             1
_chemical_formula_structural            Li10Mn21O48
_chemical_formula_sum                   'Li10 Mn21 O48'
_cell_volume                            854.541285072
_cell_formula_units_Z                   1
loop_
  _symmetry_equiv_pos_site_id
  _symmetry_equiv_pos_as_xyz
   1  'x, y, z'
 
loop_
  _atom_site_type_symbol
  _atom_site_label
  _atom_site_symmetry_multiplicity
  _atom_site_fract_x
  _atom_site_fract_y
  _atom_site_fract_z
  _atom_site_attached_hydrogens
  _atom_site_B_iso_or_equiv
  _atom_site_occupancy
   Li  Li1  1  0.133130  0.114049  0.023128  0  .  1
   Li  Li2  1  0.133111  0.128963  0.184827  0  .  1
   Li  Li3  1  0.134938  0.117584  0.354983  0  .  1
   Li  Li4  1  0.866870  0.885951  0.143538  0  .  1
   Li  Li5  1  0.133027  0.132041  0.517148  0  .  1
   Li  Li6  1  0.131267  0.115634  0.689578  0  .  1
   Li  Li7  1  0.868733  0.884366  0.477089  0  .  1
   Li  Li8  1  0.866973  0.867959  0.649518  0  .  1
   Li  Li9  1  0.865062  0.882416  0.811684  0  .  1
   Li  Li10  1  0.866889  0.871037  0.981840  0  .  1
   Mn  Mn11  1  0.500000  0.500000  0.083333  0  .  1
   Mn  Mn12  1  0.997707  0.500897  0.250083  0  .  1
   Mn  Mn13  1  0.500000  0.000000  0.083333  0  .  1
   Mn  Mn14  1  0.506057  0.504538  0.164145  0  .  1
   Mn  Mn15  1  0.500370  0.500704  0.250101  0  .  1
   Mn  Mn16  1  0.500370  0.998319  0.250101  0  .  1
   Mn  Mn17  1  0.495926  0.496077  0.335320  0  .  1
   Mn  Mn18  1  0.498673  0.499617  0.416627  0  .  1
   Mn  Mn19  1  0.000000  0.500000  0.583333  0  .  1
   Mn  Mn20  1  0.498673  0.001948  0.416627  0  .  1
   Mn  Mn21  1  0.507030  0.504983  0.497167  0  .  1
   Mn  Mn22  1  0.500000  0.500000  0.583333  0  .  1
   Mn  Mn23  1  0.492970  0.495017  0.669500  0  .  1
   Mn  Mn24  1  0.500000  0.000000  0.583333  0  .  1
   Mn  Mn25  1  0.501327  0.500383  0.750040  0  .  1
   Mn  Mn26  1  0.002293  0.499103  0.916584  0  .  1
   Mn  Mn27  1  0.504074  0.503923  0.831346  0  .  1
   Mn  Mn28  1  0.501327  0.998052  0.750040  0  .  1
   Mn  Mn29  1  0.499630  0.499296  0.916566  0  .  1
   Mn  Mn30  1  0.493943  0.495462  0.002522  0  .  1
   Mn  Mn31  1  0.499630  0.001681  0.916566  0  .  1
   O  O32  1  0.306637  0.246566  0.038508  0  .  1
   O  O33  1  0.294982  0.250155  0.117451  0  .  1
   O  O34  1  0.306637  0.715747  0.038508  0  .  1
   O  O35  1  0.716890  0.259280  0.044092  0  .  1
   O  O36  1  0.283110  0.740720  0.122575  0  .  1
   O  O37  1  0.258319  0.262685  0.211711  0  .  1
   O  O38  1  0.693363  0.284253  0.128159  0  .  1
   O  O39  1  0.266979  0.263320  0.284397  0  .  1
   O  O40  1  0.258319  0.708734  0.211711  0  .  1
   O  O41  1  0.705018  0.749845  0.049216  0  .  1
   O  O42  1  0.706316  0.264931  0.210637  0  .  1
   O  O43  1  0.693363  0.753434  0.128159  0  .  1
   O  O44  1  0.300346  0.735510  0.288106  0  .  1
   O  O45  1  0.310001  0.243764  0.371604  0  .  1
   O  O46  1  0.740531  0.297542  0.287150  0  .  1
   O  O47  1  0.293855  0.251592  0.450493  0  .  1
   O  O48  1  0.733734  0.738776  0.214785  0  .  1
   O  O49  1  0.310001  0.716612  0.371604  0  .  1
   O  O50  1  0.716305  0.259225  0.377540  0  .  1
   O  O51  1  0.740531  0.739023  0.287150  0  .  1
   O  O52  1  0.282763  0.740143  0.456158  0  .  1
   O  O53  1  0.256861  0.262231  0.545296  0  .  1
   O  O54  1  0.694210  0.284779  0.461424  0  .  1
   O  O55  1  0.706374  0.745135  0.383893  0  .  1
   O  O56  1  0.256538  0.264749  0.618994  0  .  1
   O  O57  1  0.256861  0.709129  0.545296  0  .  1
   O  O58  1  0.706637  0.264305  0.544126  0  .  1
   O  O59  1  0.694210  0.752468  0.461424  0  .  1
   O  O60  1  0.293363  0.735695  0.622541  0  .  1
   O  O61  1  0.305790  0.247532  0.705243  0  .  1
   O  O62  1  0.743139  0.290871  0.621371  0  .  1
   O  O63  1  0.293626  0.254864  0.782774  0  .  1
   O  O64  1  0.305790  0.715221  0.705243  0  .  1
   O  O65  1  0.743462  0.735251  0.547673  0  .  1
   O  O66  1  0.717237  0.259857  0.710509  0  .  1
   O  O67  1  0.743139  0.737769  0.621371  0  .  1
   O  O68  1  0.283695  0.740775  0.789126  0  .  1
   O  O69  1  0.259469  0.260977  0.879516  0  .  1
   O  O70  1  0.689999  0.283388  0.795062  0  .  1
   O  O71  1  0.266266  0.261224  0.951881  0  .  1
   O  O72  1  0.706145  0.748408  0.716173  0  .  1
   O  O73  1  0.259469  0.702458  0.879516  0  .  1
   O  O74  1  0.699654  0.264490  0.878560  0  .  1
   O  O75  1  0.689999  0.756236  0.795062  0  .  1
   O  O76  1  0.293684  0.735069  0.956030  0  .  1
   O  O77  1  0.741681  0.291266  0.954956  0  .  1
   O  O78  1  0.733021  0.736680  0.882270  0  .  1
   O  O79  1  0.741681  0.737315  0.954956  0  .  1
 
