#\#CIF1.1
##########################################################################
#               Crystallographic Information Format file 
#               Produced by PyCifRW module
# 
#  This is a CIF file.  CIF has been adopted by the International
#  Union of Crystallography as the standard for data archiving and 
#  transmission.
#
#  For information on this file format, follow the CIF links at
#  http://www.iucr.org
##########################################################################

data_Li10Co4O9
_symmetry_space_group_name_H-M          'P 1'
_cell_length_a                          9.81032708423
_cell_length_b                          7.75333415756
_cell_length_c                          7.57874160433
_cell_angle_alpha                       60.982905747
_cell_angle_beta                        103.936553327
_cell_angle_gamma                       88.5805677613
_chemical_name_systematic               'Generated by pymatgen'
_symmetry_Int_Tables_number             1
_chemical_formula_structural            Li10Co4O9
_chemical_formula_sum                   'Li20 Co8 O18'
_cell_volume                            482.403452211
_cell_formula_units_Z                   2
loop_
  _symmetry_equiv_pos_site_id
  _symmetry_equiv_pos_as_xyz
   1  'x, y, z'
 
loop_
  _atom_site_type_symbol
  _atom_site_label
  _atom_site_symmetry_multiplicity
  _atom_site_fract_x
  _atom_site_fract_y
  _atom_site_fract_z
  _atom_site_attached_hydrogens
  _atom_site_B_iso_or_equiv
  _atom_site_occupancy
   Li  Li1  1  0.127370  0.919156  0.651139  0  .  1
   Li  Li2  1  0.142246  0.711581  0.130430  0  .  1
   Li  Li3  1  0.098666  0.609408  0.494607  0  .  1
   Li  Li4  1  0.150389  0.335839  0.399075  0  .  1
   Li  Li5  1  0.343621  0.867353  0.959212  0  .  1
   Li  Li6  1  0.128955  0.154106  0.807014  0  .  1
   Li  Li7  1  0.393712  0.620911  0.849580  0  .  1
   Li  Li8  1  0.371897  0.468354  0.238772  0  .  1
   Li  Li9  1  0.623009  0.926330  0.488934  0  .  1
   Li  Li10  1  0.615596  0.814945  0.863775  0  .  1
   Li  Li11  1  0.384404  0.185055  0.136225  0  .  1
   Li  Li12  1  0.376991  0.073670  0.511066  0  .  1
   Li  Li13  1  0.628103  0.531646  0.761228  0  .  1
   Li  Li14  1  0.606288  0.379089  0.150420  0  .  1
   Li  Li15  1  0.871045  0.845894  0.192986  0  .  1
   Li  Li16  1  0.656379  0.132647  0.040788  0  .  1
   Li  Li17  1  0.849611  0.664161  0.600925  0  .  1
   Li  Li18  1  0.901334  0.390593  0.505393  0  .  1
   Li  Li19  1  0.857754  0.288419  0.869570  0  .  1
   Li  Li20  1  0.872629  0.080844  0.348861  0  .  1
   Co  Co21  1  0.131779  0.471626  0.929669  0  .  1
   Co  Co22  1  0.365916  0.755034  0.410064  0  .  1
   Co  Co23  1  0.141485  0.039118  0.242124  0  .  1
   Co  Co24  1  0.370482  0.306994  0.712101  0  .  1
   Co  Co25  1  0.629518  0.693006  0.287899  0  .  1
   Co  Co26  1  0.858515  0.960882  0.757876  0  .  1
   Co  Co27  1  0.634084  0.244966  0.589936  0  .  1
   Co  Co28  1  0.868221  0.528374  0.070331  0  .  1
   O  O29  1  0.028088  0.891428  0.389968  0  .  1
   O  O30  1  0.258202  0.954630  0.119839  0  .  1
   O  O31  1  0.018323  0.422714  0.736365  0  .  1
   O  O32  1  0.221201  0.678225  0.927147  0  .  1
   O  O33  1  0.283641  0.532962  0.422582  0  .  1
   O  O34  1  0.225588  0.262238  0.223357  0  .  1
   O  O35  1  0.472113  0.793324  0.615692  0  .  1
   O  O36  1  0.278944  0.113001  0.684366  0  .  1
   O  O37  1  0.521410  0.658942  0.078981  0  .  1
   O  O38  1  0.478590  0.341058  0.921019  0  .  1
   O  O39  1  0.721056  0.886999  0.315634  0  .  1
   O  O40  1  0.527887  0.206676  0.384308  0  .  1
   O  O41  1  0.774412  0.737762  0.776643  0  .  1
   O  O42  1  0.716359  0.467038  0.577418  0  .  1
   O  O43  1  0.778799  0.321775  0.072853  0  .  1
   O  O44  1  0.981677  0.577286  0.263635  0  .  1
   O  O45  1  0.741798  0.045370  0.880161  0  .  1
   O  O46  1  0.971912  0.108572  0.610032  0  .  1
 
