#\#CIF1.1
##########################################################################
#               Crystallographic Information Format file 
#               Produced by PyCifRW module
# 
#  This is a CIF file.  CIF has been adopted by the International
#  Union of Crystallography as the standard for data archiving and 
#  transmission.
#
#  For information on this file format, follow the CIF links at
#  http://www.iucr.org
##########################################################################

data_Li11Mn6O16
_symmetry_space_group_name_H-M          'P 1'
_cell_length_a                          8.63230882762
_cell_length_b                          8.23604034468
_cell_length_c                          8.29073269726
_cell_angle_alpha                       90.1131663567
_cell_angle_beta                        90.455868274
_cell_angle_gamma                       89.7875742518
_chemical_name_systematic               'Generated by pymatgen'
_symmetry_Int_Tables_number             1
_chemical_formula_structural            Li11Mn6O16
_chemical_formula_sum                   'Li22 Mn12 O32'
_cell_volume                            589.414471144
_cell_formula_units_Z                   2
loop_
  _symmetry_equiv_pos_site_id
  _symmetry_equiv_pos_as_xyz
   1  'x, y, z'
 
loop_
  _atom_site_type_symbol
  _atom_site_label
  _atom_site_symmetry_multiplicity
  _atom_site_fract_x
  _atom_site_fract_y
  _atom_site_fract_z
  _atom_site_attached_hydrogens
  _atom_site_B_iso_or_equiv
  _atom_site_occupancy
   Li  Li1  1  0.004964  0.764172  0.239814  0  .  1
   Li  Li2  1  0.991345  0.001228  0.991868  0  .  1
   Li  Li3  1  0.821517  0.691641  0.441430  0  .  1
   Li  Li4  1  0.772109  0.019258  0.757539  0  .  1
   Li  Li5  1  0.767357  0.216051  0.004896  0  .  1
   Li  Li6  1  0.749049  0.995191  0.249887  0  .  1
   Li  Li7  1  0.766546  0.493998  0.258658  0  .  1
   Li  Li8  1  0.649469  0.846568  0.592609  0  .  1
   Li  Li9  1  0.592006  0.407402  0.078825  0  .  1
   Li  Li10  1  0.473874  0.009423  0.492394  0  .  1
   Li  Li11  1  0.482617  0.733427  0.743315  0  .  1
   Li  Li12  1  0.494329  0.496242  0.497243  0  .  1
   Li  Li13  1  0.462682  0.224859  0.274318  0  .  1
   Li  Li14  1  0.412126  0.561453  0.939588  0  .  1
   Li  Li15  1  0.246834  0.246552  0.503729  0  .  1
   Li  Li16  1  0.244383  0.244460  0.998893  0  .  1
   Li  Li17  1  0.245628  0.993314  0.237062  0  .  1
   Li  Li18  1  0.207812  0.757265  0.002468  0  .  1
   Li  Li19  1  0.211701  0.486440  0.728405  0  .  1
   Li  Li20  1  0.993181  0.750263  0.742455  0  .  1
   Li  Li21  1  0.006386  0.477773  0.503939  0  .  1
   Li  Li22  1  0.989821  0.243084  0.752874  0  .  1
   Mn  Mn23  1  0.737193  0.244151  0.487147  0  .  1
   Mn  Mn24  1  0.750512  0.493892  0.741587  0  .  1
   Mn  Mn25  1  0.505291  0.743111  0.252613  0  .  1
   Mn  Mn26  1  0.498677  0.246444  0.747878  0  .  1
   Mn  Mn27  1  0.247997  0.744740  0.502680  0  .  1
   Mn  Mn28  1  0.245152  0.496795  0.252923  0  .  1
   Mn  Mn29  1  0.998653  0.246187  0.248325  0  .  1
   Mn  Mn30  1  0.997766  0.496351  0.997128  0  .  1
   Mn  Mn31  1  0.753782  0.746882  0.995699  0  .  1
   Mn  Mn32  1  0.245349  0.993347  0.751031  0  .  1
   Mn  Mn33  1  0.995154  0.997736  0.497500  0  .  1
   Mn  Mn34  1  0.504087  0.992462  0.994355  0  .  1
   O  O35  1  0.997554  0.252762  0.014199  0  .  1
   O  O36  1  0.996703  0.235533  0.484182  0  .  1
   O  O37  1  0.976589  0.741683  0.997910  0  .  1
   O  O38  1  0.973142  0.486201  0.743439  0  .  1
   O  O39  1  0.744604  0.013706  0.494269  0  .  1
   O  O40  1  0.768990  0.250791  0.247249  0  .  1
   O  O41  1  0.766449  0.506324  0.982676  0  .  1
   O  O42  1  0.747249  0.483178  0.510422  0  .  1
   O  O43  1  0.745806  0.727737  0.756436  0  .  1
   O  O44  1  0.732475  0.257947  0.743827  0  .  1
   O  O45  1  0.746638  0.740462  0.226767  0  .  1
   O  O46  1  0.736516  0.977896  0.994238  0  .  1
   O  O47  1  0.496711  0.245711  0.516740  0  .  1
   O  O48  1  0.508347  0.223891  0.986811  0  .  1
   O  O49  1  0.522632  0.755766  0.993611  0  .  1
   O  O50  1  0.518354  0.480129  0.756879  0  .  1
   O  O51  1  0.474548  0.751499  0.497356  0  .  1
   O  O52  1  0.511270  0.005934  0.757236  0  .  1
   O  O53  1  0.493236  0.981838  0.227717  0  .  1
   O  O54  1  0.496903  0.511673  0.245365  0  .  1
   O  O55  1  0.275470  0.987176  0.982212  0  .  1
   O  O56  1  0.276536  0.237093  0.750224  0  .  1
   O  O57  1  0.251100  0.737616  0.263104  0  .  1
   O  O58  1  0.251346  0.746489  0.737109  0  .  1
   O  O59  1  0.243496  0.511686  0.492105  0  .  1
   O  O60  1  0.250412  0.982596  0.515630  0  .  1
   O  O61  1  0.230530  0.260264  0.252881  0  .  1
   O  O62  1  0.219037  0.507111  0.011157  0  .  1
   O  O63  1  0.021147  0.761030  0.493339  0  .  1
   O  O64  1  0.000224  0.004462  0.736399  0  .  1
   O  O65  1  0.992370  0.480872  0.255525  0  .  1
   O  O66  1  0.006007  0.011345  0.255598  0  .  1
 
