#\#CIF1.1
##########################################################################
#               Crystallographic Information Format file 
#               Produced by PyCifRW module
# 
#  This is a CIF file.  CIF has been adopted by the International
#  Union of Crystallography as the standard for data archiving and 
#  transmission.
#
#  For information on this file format, follow the CIF links at
#  http://www.iucr.org
##########################################################################

data_Li11Mn13O32
_symmetry_space_group_name_H-M          'P 1'
_cell_length_a                          11.7639919516
_cell_length_b                          15.6007514263
_cell_length_c                          10.2184605263
_cell_angle_alpha                       28.8804559603
_cell_angle_beta                        54.1844303013
_cell_angle_gamma                       40.5072923203
_chemical_name_systematic               'Generated by pymatgen'
_symmetry_Int_Tables_number             1
_chemical_formula_structural            Li11Mn13O32
_chemical_formula_sum                   'Li11 Mn13 O32'
_cell_volume                            568.598360476
_cell_formula_units_Z                   1
loop_
  _symmetry_equiv_pos_site_id
  _symmetry_equiv_pos_as_xyz
   1  'x, y, z'
 
loop_
  _atom_site_type_symbol
  _atom_site_label
  _atom_site_symmetry_multiplicity
  _atom_site_fract_x
  _atom_site_fract_y
  _atom_site_fract_z
  _atom_site_attached_hydrogens
  _atom_site_B_iso_or_equiv
  _atom_site_occupancy
   Li  Li1  1  0.998988  0.000000  0.010041  0  .  1
   Li  Li2  1  0.503320  0.000000  0.005089  0  .  1
   Li  Li3  1  0.251994  0.505183  0.998490  0  .  1
   Li  Li4  1  0.064689  0.495622  0.629378  0  .  1
   Li  Li5  1  0.373006  0.494817  0.251510  0  .  1
   Li  Li6  1  0.812500  0.000000  0.625000  0  .  1
   Li  Li7  1  0.757177  0.494817  0.008856  0  .  1
   Li  Li8  1  0.121680  0.000000  0.244911  0  .  1
   Li  Li9  1  0.560311  0.504378  0.620622  0  .  1
   Li  Li10  1  0.867823  0.505183  0.241144  0  .  1
   Li  Li11  1  0.626012  0.000000  0.239959  0  .  1
   Mn  Mn12  1  0.058518  0.000000  0.627929  0  .  1
   Mn  Mn13  1  0.186458  0.254839  0.117995  0  .  1
   Mn  Mn14  1  0.312500  0.000000  0.625000  0  .  1
   Mn  Mn15  1  0.183703  0.254839  0.622326  0  .  1
   Mn  Mn16  1  0.566482  0.000000  0.622071  0  .  1
   Mn  Mn17  1  0.688137  0.249658  0.124539  0  .  1
   Mn  Mn18  1  0.312500  0.500000  0.625000  0  .  1
   Mn  Mn19  1  0.687206  0.249658  0.626146  0  .  1
   Mn  Mn20  1  0.438542  0.745161  0.132005  0  .  1
   Mn  Mn21  1  0.441297  0.745161  0.627674  0  .  1
   Mn  Mn22  1  0.812500  0.500000  0.625000  0  .  1
   Mn  Mn23  1  0.936863  0.750342  0.125461  0  .  1
   Mn  Mn24  1  0.937794  0.750342  0.623854  0  .  1
   O  O25  1  0.194922  0.000000  0.389887  0  .  1
   O  O26  1  0.085244  0.221381  0.391776  0  .  1
   O  O27  1  0.417177  0.000000  0.392034  0  .  1
   O  O28  1  0.207823  0.000000  0.857966  0  .  1
   O  O29  1  0.055523  0.266622  0.835427  0  .  1
   O  O30  1  0.318375  0.221381  0.415461  0  .  1
   O  O31  1  0.430078  0.000000  0.860113  0  .  1
   O  O32  1  0.169946  0.494801  0.379335  0  .  1
   O  O33  1  0.693949  0.000000  0.385840  0  .  1
   O  O34  1  0.570620  0.228220  0.378293  0  .  1
   O  O35  1  0.302855  0.266622  0.881329  0  .  1
   O  O36  1  0.072446  0.726832  0.418130  0  .  1
   O  O37  1  0.916205  0.000000  0.377540  0  .  1
   O  O38  1  0.181331  0.501553  0.861454  0  .  1
   O  O39  1  0.443669  0.498447  0.388546  0  .  1
   O  O40  1  0.708795  0.000000  0.872460  0  .  1
   O  O41  1  0.054380  0.771780  0.871707  0  .  1
   O  O42  1  0.826159  0.228220  0.415266  0  .  1
   O  O43  1  0.552554  0.273168  0.831870  0  .  1
   O  O44  1  0.322145  0.733378  0.368671  0  .  1
   O  O45  1  0.931051  0.000000  0.864160  0  .  1
   O  O46  1  0.664747  0.505199  0.368936  0  .  1
   O  O47  1  0.455054  0.505199  0.870665  0  .  1
   O  O48  1  0.799278  0.273168  0.871794  0  .  1
   O  O49  1  0.306625  0.778619  0.834539  0  .  1
   O  O50  1  0.569477  0.733378  0.414573  0  .  1
   O  O51  1  0.682884  0.498447  0.864559  0  .  1
   O  O52  1  0.942116  0.501553  0.385441  0  .  1
   O  O53  1  0.825722  0.726832  0.378206  0  .  1
   O  O54  1  0.539756  0.778619  0.858224  0  .  1
   O  O55  1  0.960253  0.494801  0.881064  0  .  1
   O  O56  1  0.798841  0.771780  0.834734  0  .  1
 
