#\#CIF1.1
##########################################################################
#               Crystallographic Information Format file 
#               Produced by PyCifRW module
# 
#  This is a CIF file.  CIF has been adopted by the International
#  Union of Crystallography as the standard for data archiving and 
#  transmission.
#
#  For information on this file format, follow the CIF links at
#  http://www.iucr.org
##########################################################################

data_Li11V16O32
_symmetry_space_group_name_H-M          'P 1'
_cell_length_a                          8.51546769111
_cell_length_b                          10.4447803488
_cell_length_c                          8.4779334793
_cell_angle_alpha                       65.5014810341
_cell_angle_beta                        91.2981044065
_cell_angle_gamma                       114.516817609
_chemical_name_systematic               'Generated by pymatgen'
_symmetry_Int_Tables_number             1
_chemical_formula_structural            Li11V16O32
_chemical_formula_sum                   'Li11 V16 O32'
_cell_volume                            614.04535199
_cell_formula_units_Z                   1
loop_
  _symmetry_equiv_pos_site_id
  _symmetry_equiv_pos_as_xyz
   1  'x, y, z'
 
loop_
  _atom_site_type_symbol
  _atom_site_label
  _atom_site_symmetry_multiplicity
  _atom_site_fract_x
  _atom_site_fract_y
  _atom_site_fract_z
  _atom_site_attached_hydrogens
  _atom_site_B_iso_or_equiv
  _atom_site_occupancy
   Li  Li1  1  0.912030  0.286113  0.324572  0  .  1
   Li  Li2  1  0.935798  0.619206  0.806948  0  .  1
   Li  Li3  1  0.667572  0.112628  0.573965  0  .  1
   Li  Li4  1  0.846919  0.819466  0.899001  0  .  1
   Li  Li5  1  0.566268  0.381160  0.677470  0  .  1
   Li  Li6  1  0.607636  0.740678  0.136823  0  .  1
   Li  Li7  1  0.260056  0.170247  0.974866  0  .  1
   Li  Li8  1  0.264794  0.509298  0.253687  0  .  1
   Li  Li9  1  0.117589  0.263697  0.124629  0  .  1
   Li  Li10  1  0.370380  0.742988  0.382417  0  .  1
   Li  Li11  1  0.272001  0.957661  0.321139  0  .  1
   V  V12  1  0.742205  0.996765  0.254088  0  .  1
   V  V13  1  0.992578  0.503451  0.507484  0  .  1
   V  V14  1  0.863966  0.242559  0.867512  0  .  1
   V  V15  1  0.746564  0.499691  0.250574  0  .  1
   V  V16  1  0.623850  0.250118  0.120452  0  .  1
   V  V17  1  0.878391  0.756051  0.371562  0  .  1
   V  V18  1  0.498123  0.997018  0.991560  0  .  1
   V  V19  1  0.624111  0.753436  0.623799  0  .  1
   V  V20  1  0.251972  0.998684  0.742944  0  .  1
   V  V21  1  0.502273  0.498175  0.990617  0  .  1
   V  V22  1  0.378927  0.254904  0.374627  0  .  1
   V  V23  1  0.249228  0.500314  0.747423  0  .  1
   V  V24  1  0.124585  0.254397  0.620813  0  .  1
   V  V25  1  0.366255  0.744842  0.868566  0  .  1
   V  V26  1  0.000688  0.005045  0.500865  0  .  1
   V  V27  1  0.120935  0.745326  0.121691  0  .  1
   O  O28  1  0.888676  0.264420  0.619550  0  .  1
   O  O29  1  0.719818  0.995166  0.014777  0  .  1
   O  O30  1  0.992267  0.507171  0.267397  0  .  1
   O  O31  1  0.858431  0.223508  0.123446  0  .  1
   O  O32  1  0.869877  0.737016  0.143252  0  .  1
   O  O33  1  0.512887  0.007202  0.230391  0  .  1
   O  O34  1  0.772539  0.519121  0.486536  0  .  1
   O  O35  1  0.620535  0.230406  0.889958  0  .  1
   O  O36  1  0.870456  0.771201  0.606321  0  .  1
   O  O37  1  0.984476  0.998179  0.273844  0  .  1
   O  O38  1  0.725124  0.486931  0.007285  0  .  1
   O  O39  1  0.629858  0.262529  0.350646  0  .  1
   O  O40  1  0.503830  0.494209  0.231115  0  .  1
   O  O41  1  0.382082  0.261226  0.127971  0  .  1
   O  O42  1  0.758140  0.997768  0.486950  0  .  1
   O  O43  1  0.640570  0.776502  0.363411  0  .  1
   O  O44  1  0.502538  0.512293  0.757875  0  .  1
   O  O45  1  0.353616  0.238818  0.622005  0  .  1
   O  O46  1  0.601217  0.730255  0.881459  0  .  1
   O  O47  1  0.239338  0.019400  0.494622  0  .  1
   O  O48  1  0.269352  0.501662  0.988306  0  .  1
   O  O49  1  0.125879  0.245387  0.379667  0  .  1
   O  O50  1  0.382533  0.735436  0.633764  0  .  1
   O  O51  1  0.013097  0.013044  0.718788  0  .  1
   O  O52  1  0.480232  0.983853  0.769126  0  .  1
   O  O53  1  0.225657  0.494674  0.508864  0  .  1
   O  O54  1  0.113290  0.264125  0.861674  0  .  1
   O  O55  1  0.371143  0.755594  0.109875  0  .  1
   O  O56  1  0.133363  0.760471  0.877850  0  .  1
   O  O57  1  0.995563  0.486574  0.736074  0  .  1
   O  O58  1  0.266429  0.985451  0.998757  0  .  1
   O  O59  1  0.114879  0.739510  0.364903  0  .  1
 
