#\#CIF1.1
##########################################################################
#               Crystallographic Information Format file 
#               Produced by PyCifRW module
# 
#  This is a CIF file.  CIF has been adopted by the International
#  Union of Crystallography as the standard for data archiving and 
#  transmission.
#
#  For information on this file format, follow the CIF links at
#  http://www.iucr.org
##########################################################################

data_Li11(FeO3)4
_symmetry_space_group_name_H-M          'P 1'
_cell_length_a                          3.49637869
_cell_length_b                          8.99739580844
_cell_length_c                          9.06567451549
_cell_angle_alpha                       89.2704164885
_cell_angle_beta                        90.0
_cell_angle_gamma                       90.0
_chemical_name_systematic               'Generated by pymatgen'
_symmetry_Int_Tables_number             1
_chemical_formula_structural            Li11(FeO3)4
_chemical_formula_sum                   'Li11 Fe4 O12'
_cell_volume                            285.16761466
_cell_formula_units_Z                   1
loop_
  _symmetry_equiv_pos_site_id
  _symmetry_equiv_pos_as_xyz
   1  'x, y, z'
 
loop_
  _atom_site_type_symbol
  _atom_site_label
  _atom_site_symmetry_multiplicity
  _atom_site_fract_x
  _atom_site_fract_y
  _atom_site_fract_z
  _atom_site_attached_hydrogens
  _atom_site_B_iso_or_equiv
  _atom_site_occupancy
   Li  Li1  1  0.499999  0.112184  0.313813  0  .  1
   Li  Li2  1  0.000000  0.143701  0.600875  0  .  1
   Li  Li3  1  0.500000  0.318421  0.108869  0  .  1
   Li  Li4  1  0.500001  0.331007  0.670518  0  .  1
   Li  Li5  1  0.000000  0.400794  0.859073  0  .  1
   Li  Li6  1  0.000000  0.600367  0.147811  0  .  1
   Li  Li7  1  0.500000  0.642421  0.901847  0  .  1
   Li  Li8  1  0.499999  0.673292  0.330389  0  .  1
   Li  Li9  1  0.000002  0.829915  0.825336  0  .  1
   Li  Li10  1  0.000000  0.871291  0.397349  0  .  1
   Li  Li11  1  0.500000  0.903569  0.640332  0  .  1
   Fe  Fe12  1  0.500000  0.113268  0.886556  0  .  1
   Fe  Fe13  1  0.000000  0.616205  0.612295  0  .  1
   Fe  Fe14  1  0.000000  0.384054  0.385543  0  .  1
   Fe  Fe15  1  0.500000  0.887420  0.110184  0  .  1
   O  O16  1  0.500000  0.112015  0.685040  0  .  1
   O  O17  1  0.500000  0.095028  0.092386  0  .  1
   O  O18  1  0.000000  0.185861  0.396296  0  .  1
   O  O19  1  0.500000  0.316480  0.890455  0  .  1
   O  O20  1  0.000000  0.401465  0.600955  0  .  1
   O  O21  1  0.000000  0.393846  0.189315  0  .  1
   O  O22  1  0.000000  0.601227  0.399799  0  .  1
   O  O23  1  0.000000  0.611513  0.815748  0  .  1
   O  O24  1  0.500000  0.684160  0.110433  0  .  1
   O  O25  1  0.000000  0.821483  0.606285  0  .  1
   O  O26  1  0.500000  0.892689  0.311503  0  .  1
   O  O27  1  0.500000  0.897709  0.896437  0  .  1
 
