#\#CIF1.1
##########################################################################
#               Crystallographic Information Format file 
#               Produced by PyCifRW module
# 
#  This is a CIF file.  CIF has been adopted by the International
#  Union of Crystallography as the standard for data archiving and 
#  transmission.
#
#  For information on this file format, follow the CIF links at
#  http://www.iucr.org
##########################################################################

data_Li11(NiO4)2
_symmetry_space_group_name_H-M          'P 1'
_cell_length_a                          6.53904083817
_cell_length_b                          6.51320246909
_cell_length_c                          9.32972309602
_cell_angle_alpha                       90.0238430761
_cell_angle_beta                        89.8973439047
_cell_angle_gamma                       91.4577938307
_chemical_name_systematic               'Generated by pymatgen'
_symmetry_Int_Tables_number             1
_chemical_formula_structural            Li11(NiO4)2
_chemical_formula_sum                   'Li22 Ni4 O16'
_cell_volume                            397.224537283
_cell_formula_units_Z                   2
loop_
  _symmetry_equiv_pos_site_id
  _symmetry_equiv_pos_as_xyz
   1  'x, y, z'
 
loop_
  _atom_site_type_symbol
  _atom_site_label
  _atom_site_symmetry_multiplicity
  _atom_site_fract_x
  _atom_site_fract_y
  _atom_site_fract_z
  _atom_site_attached_hydrogens
  _atom_site_B_iso_or_equiv
  _atom_site_occupancy
   Li  Li1  1  0.050582  0.543058  0.373474  0  .  1
   Li  Li2  1  0.034661  0.540944  0.877198  0  .  1
   Li  Li3  1  0.027585  0.973705  0.374851  0  .  1
   Li  Li4  1  0.276197  0.269060  0.345302  0  .  1
   Li  Li5  1  0.248548  0.253927  0.096126  0  .  1
   Li  Li6  1  0.227139  0.230153  0.850556  0  .  1
   Li  Li7  1  0.251014  0.248958  0.593790  0  .  1
   Li  Li8  1  0.480759  0.519156  0.874875  0  .  1
   Li  Li9  1  0.455352  0.949588  0.376339  0  .  1
   Li  Li10  1  0.460491  0.965552  0.871854  0  .  1
   Li  Li11  1  0.531880  0.036619  0.123046  0  .  1
   Li  Li12  1  0.524055  0.470521  0.138867  0  .  1
   Li  Li13  1  0.531414  0.029705  0.625925  0  .  1
   Li  Li14  1  0.530194  0.474403  0.612345  0  .  1
   Li  Li15  1  0.751482  0.748715  0.153767  0  .  1
   Li  Li16  1  0.730790  0.725917  0.405745  0  .  1
   Li  Li17  1  0.745544  0.752496  0.654021  0  .  1
   Li  Li18  1  0.769354  0.773811  0.899123  0  .  1
   Li  Li19  1  0.975054  0.030057  0.104929  0  .  1
   Li  Li20  1  0.969044  0.027073  0.645874  0  .  1
   Li  Li21  1  0.972345  0.468896  0.124989  0  .  1
   Li  Li22  1  0.962128  0.466067  0.627083  0  .  1
   Ni  Ni23  1  0.251105  0.753037  0.122338  0  .  1
   Ni  Ni24  1  0.249825  0.749745  0.625284  0  .  1
   Ni  Ni25  1  0.746947  0.253243  0.377702  0  .  1
   Ni  Ni26  1  0.756459  0.244759  0.877290  0  .  1
   O  O27  1  -0.000030  0.250869  0.478110  0  .  1
   O  O28  1  0.010619  0.269657  0.981999  0  .  1
   O  O29  1  0.247778  0.483594  0.726218  0  .  1
   O  O30  1  0.251635  0.014137  0.230171  0  .  1
   O  O31  1  0.255917  0.012615  0.716901  0  .  1
   O  O32  1  0.244877  0.490685  0.221436  0  .  1
   O  O33  1  0.483772  0.246941  0.977955  0  .  1
   O  O34  1  0.505001  0.235259  0.479424  0  .  1
   O  O35  1  0.518737  0.751532  0.023671  0  .  1
   O  O36  1  0.506627  0.754668  0.529882  0  .  1
   O  O37  1  0.730092  0.994666  0.766390  0  .  1
   O  O38  1  0.748040  0.998014  0.272432  0  .  1
   O  O39  1  0.765891  0.494440  0.270136  0  .  1
   O  O40  1  0.750963  0.510610  0.769566  0  .  1
   O  O41  1  0.982947  0.744962  0.032190  0  .  1
   O  O42  1  0.987364  0.748367  0.520824  0  .  1
 
