#\#CIF1.1
##########################################################################
#               Crystallographic Information Format file 
#               Produced by PyCifRW module
# 
#  This is a CIF file.  CIF has been adopted by the International
#  Union of Crystallography as the standard for data archiving and 
#  transmission.
#
#  For information on this file format, follow the CIF links at
#  http://www.iucr.org
##########################################################################

data_Li11TiAs5
_symmetry_space_group_name_H-M          'P 1'
_cell_length_a                          4.24839196589
_cell_length_b                          21.7291432585
_cell_length_c                          11.5404351258
_cell_angle_alpha                       18.7560377718
_cell_angle_beta                        56.4821659108
_cell_angle_gamma                       60.7389432228
_chemical_name_systematic               'Generated by pymatgen'
_symmetry_Int_Tables_number             1
_chemical_formula_structural            Li11TiAs5
_chemical_formula_sum                   'Li11 Ti1 As5'
_cell_volume                            283.270634749
_cell_formula_units_Z                   1
loop_
  _symmetry_equiv_pos_site_id
  _symmetry_equiv_pos_as_xyz
   1  'x, y, z'
 
loop_
  _atom_site_type_symbol
  _atom_site_label
  _atom_site_symmetry_multiplicity
  _atom_site_fract_x
  _atom_site_fract_y
  _atom_site_fract_z
  _atom_site_attached_hydrogens
  _atom_site_B_iso_or_equiv
  _atom_site_occupancy
   Li  Li1  1  0.275444  0.319622  0.283666  0  .  1
   Li  Li2  1  0.753855  0.051479  0.744964  0  .  1
   Li  Li3  1  0.259173  0.563926  0.220674  0  .  1
   Li  Li4  1  0.506640  0.304882  0.487437  0  .  1
   Li  Li5  1  0.733562  0.235403  0.785287  0  .  1
   Li  Li6  1  0.279770  0.779982  0.180184  0  .  1
   Li  Li7  1  0.776055  0.474136  0.692402  0  .  1
   Li  Li8  1  0.214205  0.935592  0.297877  0  .  1
   Li  Li9  1  0.474846  0.706147  0.506524  0  .  1
   Li  Li10  1  0.718471  0.670492  0.736866  0  .  1
   Li  Li11  1  0.759959  0.824853  0.785272  0  .  1
   Ti  Ti12  1  0.238166  0.151841  0.254822  0  .  1
   As  As13  1  0.992117  0.993233  0.016534  0  .  1
   As  As14  1  0.968945  0.195748  0.027791  0  .  1
   As  As15  1  0.023748  0.402031  0.980782  0  .  1
   As  As16  1  0.007477  0.564965  0.053407  0  .  1
   As  As17  1  0.017568  0.825667  0.945509  0  .  1
 
