#\#CIF1.1
##########################################################################
#               Crystallographic Information Format file 
#               Produced by PyCifRW module
# 
#  This is a CIF file.  CIF has been adopted by the International
#  Union of Crystallography as the standard for data archiving and 
#  transmission.
#
#  For information on this file format, follow the CIF links at
#  http://www.iucr.org
##########################################################################

data_Li12Fe5O16
_symmetry_space_group_name_H-M          'P 1'
_cell_length_a                          5.87027738974
_cell_length_b                          6.0038969083
_cell_length_c                          9.7906694642
_cell_angle_alpha                       92.956309718
_cell_angle_beta                        90.5425518088
_cell_angle_gamma                       59.4917641241
_chemical_name_systematic               'Generated by pymatgen'
_symmetry_Int_Tables_number             1
_chemical_formula_structural            Li12Fe5O16
_chemical_formula_sum                   'Li12 Fe5 O16'
_cell_volume                            296.843494186
_cell_formula_units_Z                   1
loop_
  _symmetry_equiv_pos_site_id
  _symmetry_equiv_pos_as_xyz
   1  'x, y, z'
 
loop_
  _atom_site_type_symbol
  _atom_site_label
  _atom_site_symmetry_multiplicity
  _atom_site_fract_x
  _atom_site_fract_y
  _atom_site_fract_z
  _atom_site_attached_hydrogens
  _atom_site_B_iso_or_equiv
  _atom_site_occupancy
   Li  Li1  1  0.756837  0.912788  0.223499  0  .  1
   Li  Li2  1  0.795746  0.789597  0.966961  0  .  1
   Li  Li3  1  0.973663  0.013198  0.029702  0  .  1
   Li  Li4  1  0.311568  0.915904  0.223521  0  .  1
   Li  Li5  1  0.097229  0.803337  0.453227  0  .  1
   Li  Li6  1  0.379902  0.779689  0.956890  0  .  1
   Li  Li7  1  0.665077  0.656734  0.721580  0  .  1
   Li  Li8  1  0.802843  0.381768  0.948297  0  .  1
   Li  Li9  1  0.281490  0.436168  0.234703  0  .  1
   Li  Li10  1  0.159323  0.656115  0.719755  0  .  1
   Li  Li11  1  0.618658  0.260405  0.446141  0  .  1
   Li  Li12  1  0.114898  0.261040  0.448512  0  .  1
   Fe  Fe13  1  0.163138  0.163288  0.715157  0  .  1
   Fe  Fe14  1  0.616091  0.769850  0.459657  0  .  1
   Fe  Fe15  1  0.313304  0.346183  0.972466  0  .  1
   Fe  Fe16  1  0.794797  0.401251  0.214173  0  .  1
   Fe  Fe17  1  0.666139  0.167447  0.714092  0  .  1
   O  O18  1  0.810835  0.853564  0.598125  0  .  1
   O  O19  1  0.463162  0.063178  0.357222  0  .  1
   O  O20  1  0.345252  0.847862  0.587178  0  .  1
   O  O21  1  0.644502  0.675037  0.102358  0  .  1
   O  O22  1  0.932264  0.590066  0.352255  0  .  1
   O  O23  1  0.488638  0.579613  0.345327  0  .  1
   O  O24  1  0.151191  0.668341  0.065448  0  .  1
   O  O25  1  0.834244  0.322761  0.604734  0  .  1
   O  O26  1  0.503258  0.468271  0.835528  0  .  1
   O  O27  1  0.614710  0.212445  0.087280  0  .  1
   O  O28  1  0.938773  0.104201  0.312816  0  .  1
   O  O29  1  0.344640  0.308809  0.617662  0  .  1
   O  O30  1  0.987304  0.017399  0.822310  0  .  1
   O  O31  1  0.019277  0.477346  0.846357  0  .  1
   O  O32  1  0.110405  0.220509  0.095160  0  .  1
   O  O33  1  0.478167  0.021415  0.853694  0  .  1
 
