#\#CIF1.1
##########################################################################
#               Crystallographic Information Format file 
#               Produced by PyCifRW module
# 
#  This is a CIF file.  CIF has been adopted by the International
#  Union of Crystallography as the standard for data archiving and 
#  transmission.
#
#  For information on this file format, follow the CIF links at
#  http://www.iucr.org
##########################################################################

data_Li13Mn21O48
_symmetry_space_group_name_H-M          'P 1'
_cell_length_a                          5.86965196106
_cell_length_b                          5.86965227753
_cell_length_c                          35.2253633493
_cell_angle_alpha                       59.8300681386
_cell_angle_beta                        59.8300663545
_cell_angle_gamma                       59.6422611247
_chemical_name_systematic               'Generated by pymatgen'
_symmetry_Int_Tables_number             1
_chemical_formula_structural            Li13Mn21O48
_chemical_formula_sum                   'Li13 Mn21 O48'
_cell_volume                            853.616921041
_cell_formula_units_Z                   1
loop_
  _symmetry_equiv_pos_site_id
  _symmetry_equiv_pos_as_xyz
   1  'x, y, z'
 
loop_
  _atom_site_type_symbol
  _atom_site_label
  _atom_site_symmetry_multiplicity
  _atom_site_fract_x
  _atom_site_fract_y
  _atom_site_fract_z
  _atom_site_attached_hydrogens
  _atom_site_B_iso_or_equiv
  _atom_site_occupancy
   Li  Li1  1  0.116989  0.116989  0.357970  0  .  1
   Li  Li2  1  0.879676  0.879676  0.144789  0  .  1
   Li  Li3  1  0.499626  0.499626  0.333381  0  .  1
   Li  Li4  1  0.112941  0.112941  0.522816  0  .  1
   Li  Li5  1  0.884483  0.884483  0.307560  0  .  1
   Li  Li6  1  0.128199  0.128199  0.684758  0  .  1
   Li  Li7  1  0.500044  0.500044  0.583295  0  .  1
   Li  Li8  1  0.871937  0.871937  0.481827  0  .  1
   Li  Li9  1  0.119882  0.119882  0.856951  0  .  1
   Li  Li10  1  0.887159  0.887159  0.643755  0  .  1
   Li  Li11  1  0.501247  0.501247  0.832843  0  .  1
   Li  Li12  1  0.882748  0.882748  0.808811  0  .  1
   Li  Li13  1  0.876033  0.876033  0.979477  0  .  1
   Mn  Mn14  1  0.498240  0.498240  0.000692  0  .  1
   Mn  Mn15  1  0.498440  0.001960  0.083265  0  .  1
   Mn  Mn16  1  0.498448  0.498448  0.083618  0  .  1
   Mn  Mn17  1  0.498506  0.498506  0.167846  0  .  1
   Mn  Mn18  1  0.501619  0.995731  0.250149  0  .  1
   Mn  Mn19  1  0.001960  0.498440  0.083265  0  .  1
   Mn  Mn20  1  0.501581  0.501581  0.250174  0  .  1
   Mn  Mn21  1  0.497088  0.003041  0.416698  0  .  1
   Mn  Mn22  1  0.995731  0.501619  0.250149  0  .  1
   Mn  Mn23  1  0.497798  0.497798  0.416543  0  .  1
   Mn  Mn24  1  0.496282  0.496282  0.501859  0  .  1
   Mn  Mn25  1  0.500098  0.000040  0.583303  0  .  1
   Mn  Mn26  1  0.003041  0.497088  0.416698  0  .  1
   Mn  Mn27  1  0.503837  0.503837  0.664721  0  .  1
   Mn  Mn28  1  0.503081  0.996956  0.749905  0  .  1
   Mn  Mn29  1  0.000040  0.500098  0.583303  0  .  1
   Mn  Mn30  1  0.502323  0.502323  0.750056  0  .  1
   Mn  Mn31  1  0.497323  0.006090  0.916670  0  .  1
   Mn  Mn32  1  0.497484  0.497484  0.916581  0  .  1
   Mn  Mn33  1  0.996956  0.503081  0.749905  0  .  1
   Mn  Mn34  1  0.006090  0.497323  0.916670  0  .  1
   O  O35  1  0.264910  0.264910  0.043876  0  .  1
   O  O36  1  0.244232  0.244232  0.119197  0  .  1
   O  O37  1  0.261252  0.702398  0.044213  0  .  1
   O  O38  1  0.702398  0.261252  0.044213  0  .  1
   O  O39  1  0.292242  0.738965  0.122705  0  .  1
   O  O40  1  0.269068  0.269068  0.209927  0  .  1
   O  O41  1  0.753240  0.753240  0.046994  0  .  1
   O  O42  1  0.738965  0.292242  0.122705  0  .  1
   O  O43  1  0.263006  0.263006  0.285173  0  .  1
   O  O44  1  0.267064  0.703411  0.210367  0  .  1
   O  O45  1  0.703411  0.267064  0.210367  0  .  1
   O  O46  1  0.737128  0.737128  0.122747  0  .  1
   O  O47  1  0.291083  0.751596  0.284474  0  .  1
   O  O48  1  0.249030  0.249030  0.382086  0  .  1
   O  O49  1  0.738081  0.738081  0.214216  0  .  1
   O  O50  1  0.751596  0.291083  0.284474  0  .  1
   O  O51  1  0.261513  0.261513  0.452377  0  .  1
   O  O52  1  0.246252  0.708698  0.382287  0  .  1
   O  O53  1  0.708698  0.246252  0.382287  0  .  1
   O  O54  1  0.750080  0.750080  0.284653  0  .  1
   O  O55  1  0.291664  0.734970  0.455724  0  .  1
   O  O56  1  0.260252  0.260252  0.543848  0  .  1
   O  O57  1  0.736176  0.736176  0.381719  0  .  1
   O  O58  1  0.734970  0.291664  0.455724  0  .  1
   O  O59  1  0.254983  0.254983  0.617710  0  .  1
   O  O60  1  0.252418  0.711289  0.540643  0  .  1
   O  O61  1  0.711289  0.252418  0.540643  0  .  1
   O  O62  1  0.732133  0.732133  0.457059  0  .  1
   O  O63  1  0.267855  0.267855  0.709584  0  .  1
   O  O64  1  0.288728  0.747638  0.625986  0  .  1
   O  O65  1  0.745074  0.745074  0.548903  0  .  1
   O  O66  1  0.747638  0.288728  0.625986  0  .  1
   O  O67  1  0.263870  0.263870  0.784934  0  .  1
   O  O68  1  0.265010  0.708411  0.710919  0  .  1
   O  O69  1  0.708411  0.265010  0.710919  0  .  1
   O  O70  1  0.739775  0.739775  0.622762  0  .  1
   O  O71  1  0.291196  0.753478  0.784463  0  .  1
   O  O72  1  0.249019  0.249019  0.882140  0  .  1
   O  O73  1  0.738565  0.738565  0.714208  0  .  1
   O  O74  1  0.753478  0.291196  0.784463  0  .  1
   O  O75  1  0.263568  0.263568  0.951786  0  .  1
   O  O76  1  0.247472  0.710448  0.882309  0  .  1
   O  O77  1  0.750739  0.750739  0.784663  0  .  1
   O  O78  1  0.710448  0.247472  0.882309  0  .  1
   O  O79  1  0.292041  0.734239  0.956698  0  .  1
   O  O80  1  0.736313  0.736313  0.881917  0  .  1
   O  O81  1  0.734239  0.292041  0.956698  0  .  1
   O  O82  1  0.732496  0.732496  0.957306  0  .  1
 
