#\#CIF1.1
##########################################################################
#               Crystallographic Information Format file 
#               Produced by PyCifRW module
# 
#  This is a CIF file.  CIF has been adopted by the International
#  Union of Crystallography as the standard for data archiving and 
#  transmission.
#
#  For information on this file format, follow the CIF links at
#  http://www.iucr.org
##########################################################################

data_Li13(FeO6)2
_symmetry_space_group_name_H-M          'P 1'
_cell_length_a                          5.62580681398
_cell_length_b                          7.94824469795
_cell_length_c                          5.56119691581
_cell_angle_alpha                       88.2553147158
_cell_angle_beta                        90.2913725851
_cell_angle_gamma                       89.8386127783
_chemical_name_systematic               'Generated by pymatgen'
_symmetry_Int_Tables_number             1
_chemical_formula_structural            Li13(FeO6)2
_chemical_formula_sum                   'Li13 Fe2 O12'
_cell_volume                            248.550937
_cell_formula_units_Z                   1
loop_
  _symmetry_equiv_pos_site_id
  _symmetry_equiv_pos_as_xyz
   1  'x, y, z'
 
loop_
  _atom_site_type_symbol
  _atom_site_label
  _atom_site_symmetry_multiplicity
  _atom_site_fract_x
  _atom_site_fract_y
  _atom_site_fract_z
  _atom_site_attached_hydrogens
  _atom_site_B_iso_or_equiv
  _atom_site_occupancy
   Li  Li1  1  0.883799  0.635814  0.299017  0  .  1
   Li  Li2  1  0.812806  0.891898  0.628303  0  .  1
   Li  Li3  1  0.777239  0.288064  0.957532  0  .  1
   Li  Li4  1  0.608607  0.895973  0.184522  0  .  1
   Li  Li5  1  0.682883  0.198365  0.517691  0  .  1
   Li  Li6  1  0.690620  0.605660  0.870332  0  .  1
   Li  Li7  1  0.363362  0.409020  0.074211  0  .  1
   Li  Li8  1  0.287669  0.771483  0.509419  0  .  1
   Li  Li9  1  0.377385  0.108448  0.835102  0  .  1
   Li  Li10  1  0.213149  0.717425  0.999717  0  .  1
   Li  Li11  1  0.188898  0.081271  0.417015  0  .  1
   Li  Li12  1  0.119012  0.390128  0.717770  0  .  1
   Li  Li13  1  0.013364  0.353208  0.301251  0  .  1
   Fe  Fe14  1  0.503404  0.495046  0.489106  0  .  1
   Fe  Fe15  1  0.996475  0.003617  0.011315  0  .  1
   O  O16  1  0.870076  0.782436  0.013825  0  .  1
   O  O17  1  0.854237  0.053589  0.309598  0  .  1
   O  O18  1  0.783768  0.416826  0.653874  0  .  1
   O  O19  1  0.625873  0.719288  0.479513  0  .  1
   O  O20  1  0.713859  0.071180  0.843646  0  .  1
   O  O21  1  0.678955  0.441271  0.200547  0  .  1
   O  O22  1  0.355607  0.558040  0.782197  0  .  1
   O  O23  1  0.272716  0.927275  0.171949  0  .  1
   O  O24  1  0.355477  0.277852  0.516633  0  .  1
   O  O25  1  0.221983  0.562144  0.308708  0  .  1
   O  O26  1  0.147597  0.948107  0.716263  0  .  1
   O  O27  1  0.118868  0.233168  0.002823  0  .  1
 
