#\#CIF1.1
##########################################################################
#               Crystallographic Information Format file 
#               Produced by PyCifRW module
# 
#  This is a CIF file.  CIF has been adopted by the International
#  Union of Crystallography as the standard for data archiving and 
#  transmission.
#
#  For information on this file format, follow the CIF links at
#  http://www.iucr.org
##########################################################################

data_Li13Mn17O40
_symmetry_space_group_name_H-M          'P 1'
_cell_length_a                          5.84741360147
_cell_length_b                          5.84892863718
_cell_length_c                          24.0652107484
_cell_angle_alpha                       90.2648157571
_cell_angle_beta                        96.9781608949
_cell_angle_gamma                       119.991439793
_chemical_name_systematic               'Generated by pymatgen'
_symmetry_Int_Tables_number             1
_chemical_formula_structural            Li13Mn17O40
_chemical_formula_sum                   'Li13 Mn17 O40'
_cell_volume                            705.521758637
_cell_formula_units_Z                   1
loop_
  _symmetry_equiv_pos_site_id
  _symmetry_equiv_pos_as_xyz
   1  'x, y, z'
 
loop_
  _atom_site_type_symbol
  _atom_site_label
  _atom_site_symmetry_multiplicity
  _atom_site_fract_x
  _atom_site_fract_y
  _atom_site_fract_z
  _atom_site_attached_hydrogens
  _atom_site_B_iso_or_equiv
  _atom_site_occupancy
   Li  Li1  1  0.851540  0.680304  0.022777  0  .  1
   Li  Li2  1  0.300000  0.400000  0.200000  0  .  1
   Li  Li3  1  0.947568  0.723781  0.171354  0  .  1
   Li  Li4  1  0.999973  0.500362  0.499585  0  .  1
   Li  Li5  1  0.249565  0.877802  0.621327  0  .  1
   Li  Li6  1  0.457850  0.488882  0.426819  0  .  1
   Li  Li7  1  0.652432  0.076219  0.228646  0  .  1
   Li  Li8  1  0.543484  0.513110  0.573857  0  .  1
   Li  Li9  1  0.350435  0.922198  0.778673  0  .  1
   Li  Li10  1  0.748460  0.119696  0.377223  0  .  1
   Li  Li11  1  0.056516  0.286890  0.826143  0  .  1
   Li  Li12  1  0.142150  0.311118  0.973181  0  .  1
   Li  Li13  1  0.600027  0.299638  0.900415  0  .  1
   Mn  Mn14  1  0.398874  0.697128  0.100620  0  .  1
   Mn  Mn15  1  0.099873  0.798092  0.401654  0  .  1
   Mn  Mn16  1  0.398086  0.202157  0.100451  0  .  1
   Mn  Mn17  1  0.201914  0.597843  0.299549  0  .  1
   Mn  Mn18  1  0.500127  0.001908  0.998346  0  .  1
   Mn  Mn19  1  0.695478  0.597843  0.299549  0  .  1
   Mn  Mn20  1  0.201126  0.102872  0.299380  0  .  1
   Mn  Mn21  1  0.904522  0.202157  0.100451  0  .  1
   Mn  Mn22  1  0.999552  0.999469  0.499553  0  .  1
   Mn  Mn23  1  0.100530  0.800531  0.900447  0  .  1
   Mn  Mn24  1  0.499470  0.999469  0.499553  0  .  1
   Mn  Mn25  1  0.300000  0.400000  0.700000  0  .  1
   Mn  Mn26  1  0.800000  0.900000  0.700000  0  .  1
   Mn  Mn27  1  0.800000  0.400000  0.700000  0  .  1
   Mn  Mn28  1  0.600448  0.800531  0.900447  0  .  1
   Mn  Mn29  1  0.899703  0.202120  0.597285  0  .  1
   Mn  Mn30  1  0.700297  0.597880  0.802715  0  .  1
   O  O31  1  0.240466  0.868870  0.053322  0  .  1
   O  O32  1  0.681727  0.868870  0.053322  0  .  1
   O  O33  1  0.107555  0.534053  0.141838  0  .  1
   O  O34  1  0.205227  0.352829  0.057625  0  .  1
   O  O35  1  0.004399  0.751112  0.257687  0  .  1
   O  O36  1  0.359534  0.931130  0.346678  0  .  1
   O  O37  1  0.568338  0.534053  0.141838  0  .  1
   O  O38  1  0.108361  0.074946  0.141778  0  .  1
   O  O39  1  0.031662  0.265947  0.258161  0  .  1
   O  O40  1  0.491639  0.725054  0.258222  0  .  1
   O  O41  1  0.682081  0.312049  0.052113  0  .  1
   O  O42  1  0.204776  0.868454  0.541099  0  .  1
   O  O43  1  0.297207  0.687911  0.448674  0  .  1
   O  O44  1  0.492445  0.265947  0.258161  0  .  1
   O  O45  1  0.595601  0.048888  0.142313  0  .  1
   O  O46  1  0.394773  0.447171  0.342375  0  .  1
   O  O47  1  0.918273  0.931130  0.346678  0  .  1
   O  O48  1  0.160018  0.311930  0.551203  0  .  1
   O  O49  1  0.917919  0.487951  0.347887  0  .  1
   O  O50  1  0.714126  0.881054  0.547199  0  .  1
   O  O51  1  0.082825  0.513822  0.651827  0  .  1
   O  O52  1  0.839377  0.687911  0.448674  0  .  1
   O  O53  1  0.286163  0.119854  0.452473  0  .  1
   O  O54  1  0.082516  0.066524  0.653857  0  .  1
   O  O55  1  0.517484  0.733476  0.746143  0  .  1
   O  O56  1  0.703116  0.311930  0.551203  0  .  1
   O  O57  1  0.610545  0.564589  0.656503  0  .  1
   O  O58  1  0.395224  0.931546  0.858901  0  .  1
   O  O59  1  0.795046  0.131749  0.458344  0  .  1
   O  O60  1  0.962135  0.733476  0.746143  0  .  1
   O  O61  1  0.517175  0.286178  0.748173  0  .  1
   O  O62  1  0.313837  0.680146  0.947527  0  .  1
   O  O63  1  0.885874  0.918946  0.852801  0  .  1
   O  O64  1  0.439982  0.488070  0.848797  0  .  1
   O  O65  1  0.637865  0.066524  0.653857  0  .  1
   O  O66  1  0.804954  0.668251  0.941656  0  .  1
   O  O67  1  0.989455  0.235411  0.743497  0  .  1
   O  O68  1  0.896884  0.488070  0.848797  0  .  1
   O  O69  1  0.302793  0.112089  0.951326  0  .  1
   O  O70  1  0.760623  0.112089  0.951326  0  .  1
 
