#\#CIF1.1
##########################################################################
#               Crystallographic Information Format file 
#               Produced by PyCifRW module
# 
#  This is a CIF file.  CIF has been adopted by the International
#  Union of Crystallography as the standard for data archiving and 
#  transmission.
#
#  For information on this file format, follow the CIF links at
#  http://www.iucr.org
##########################################################################

data_Li13Ni9O22
_symmetry_space_group_name_H-M          'P 1'
_cell_length_a                          6.37881019898
_cell_length_b                          10.0072390279
_cell_length_c                          6.41955957254
_cell_angle_alpha                       83.6774432828
_cell_angle_beta                        108.477902726
_cell_angle_gamma                       75.4460269116
_chemical_name_systematic               'Generated by pymatgen'
_symmetry_Int_Tables_number             1
_chemical_formula_structural            Li13Ni9O22
_chemical_formula_sum                   'Li13 Ni9 O22'
_cell_volume                            368.064582319
_cell_formula_units_Z                   1
loop_
  _symmetry_equiv_pos_site_id
  _symmetry_equiv_pos_as_xyz
   1  'x, y, z'
 
loop_
  _atom_site_type_symbol
  _atom_site_label
  _atom_site_symmetry_multiplicity
  _atom_site_fract_x
  _atom_site_fract_y
  _atom_site_fract_z
  _atom_site_attached_hydrogens
  _atom_site_B_iso_or_equiv
  _atom_site_occupancy
   Li  Li1  1  0.359853  0.955312  0.814291  0  .  1
   Li  Li2  1  0.093616  0.863243  0.451709  0  .  1
   Li  Li3  1  0.453861  0.817768  0.271646  0  .  1
   Li  Li4  1  0.547112  0.682614  0.727266  0  .  1
   Li  Li5  1  0.813250  0.772458  0.098079  0  .  1
   Li  Li6  1  0.272727  0.590909  0.363636  0  .  1
   Li  Li7  1  0.998343  0.499204  0.000007  0  .  1
   Li  Li8  1  0.732205  0.409360  0.629194  0  .  1
   Li  Li9  1  0.091593  0.364050  0.455627  0  .  1
   Li  Li10  1  0.185602  0.226507  0.912982  0  .  1
   Li  Li11  1  0.451838  0.318575  0.275564  0  .  1
   Li  Li12  1  0.913909  0.137348  0.545402  0  .  1
   Li  Li13  1  0.631546  0.044470  0.181870  0  .  1
   Ni  Ni14  1  0.726066  0.910393  0.630170  0  .  1
   Ni  Ni15  1  0.180940  0.728048  0.905948  0  .  1
   Ni  Ni16  1  0.908661  0.636329  0.543928  0  .  1
   Ni  Ni17  1  0.364515  0.453770  0.821325  0  .  1
   Ni  Ni18  1  0.636793  0.545490  0.183344  0  .  1
   Ni  Ni19  1  0.543489  0.183125  0.725879  0  .  1
   Ni  Ni20  1  0.819388  0.271426  0.097103  0  .  1
   Ni  Ni21  1  0.272727  0.090909  0.363636  0  .  1
   Ni  Ni22  1  0.001965  0.998694  0.001394  0  .  1
   O  O23  1  0.027349  0.933851  0.728127  0  .  1
   O  O24  1  0.689855  0.986863  0.889278  0  .  1
   O  O25  1  0.417969  0.902621  0.538217  0  .  1
   O  O26  1  0.208749  0.659873  0.641492  0  .  1
   O  O27  1  0.780794  0.828621  0.389505  0  .  1
   O  O28  1  0.124256  0.804367  0.148039  0  .  1
   O  O29  1  0.878421  0.702093  0.802331  0  .  1
   O  O30  1  0.667033  0.479725  0.924942  0  .  1
   O  O31  1  0.492454  0.733781  0.005680  0  .  1
   O  O32  1  0.053000  0.448037  0.721593  0  .  1
   O  O33  1  0.614806  0.606761  0.446852  0  .  1
   O  O34  1  0.421199  0.377451  0.579234  0  .  1
   O  O35  1  0.930649  0.575057  0.280420  0  .  1
   O  O36  1  0.518105  0.247968  0.999146  0  .  1
   O  O37  1  0.336705  0.521945  0.085781  0  .  1
   O  O38  1  0.127485  0.279197  0.189056  0  .  1
   O  O39  1  0.855600  0.194955  0.837995  0  .  1
   O  O40  1  0.247530  0.155808  0.624957  0  .  1
   O  O41  1  0.764661  0.353197  0.337767  0  .  1
   O  O42  1  0.567742  0.116852  0.449826  0  .  1
   O  O43  1  0.297925  0.026010  0.102316  0  .  1
   O  O44  1  0.977712  0.064966  0.277447  0  .  1
 
