#\#CIF1.1
##########################################################################
#               Crystallographic Information Format file 
#               Produced by PyCifRW module
# 
#  This is a CIF file.  CIF has been adopted by the International
#  Union of Crystallography as the standard for data archiving and 
#  transmission.
#
#  For information on this file format, follow the CIF links at
#  http://www.iucr.org
##########################################################################

data_Li13Mn2O9
_symmetry_space_group_name_H-M          'P 1'
_cell_length_a                          5.72910005373
_cell_length_b                          5.80327068819
_cell_length_c                          8.21601999596
_cell_angle_alpha                       89.0716314827
_cell_angle_beta                        87.8605274141
_cell_angle_gamma                       60.3512402433
_chemical_name_systematic               'Generated by pymatgen'
_symmetry_Int_Tables_number             1
_chemical_formula_structural            Li13Mn2O9
_chemical_formula_sum                   'Li13 Mn2 O9'
_cell_volume                            237.232008776
_cell_formula_units_Z                   1
loop_
  _symmetry_equiv_pos_site_id
  _symmetry_equiv_pos_as_xyz
   1  'x, y, z'
 
loop_
  _atom_site_type_symbol
  _atom_site_label
  _atom_site_symmetry_multiplicity
  _atom_site_fract_x
  _atom_site_fract_y
  _atom_site_fract_z
  _atom_site_attached_hydrogens
  _atom_site_B_iso_or_equiv
  _atom_site_occupancy
   Li  Li1  1  0.972662  0.319346  0.437870  0  .  1
   Li  Li2  1  0.022876  0.310269  0.935493  0  .  1
   Li  Li3  1  0.287743  0.312541  0.212549  0  .  1
   Li  Li4  1  0.030104  0.980126  0.214220  0  .  1
   Li  Li5  1  0.349598  0.624414  0.417435  0  .  1
   Li  Li6  1  0.275725  0.700416  0.953689  0  .  1
   Li  Li7  1  0.665222  0.047452  0.425883  0  .  1
   Li  Li8  1  0.653381  0.313795  0.065404  0  .  1
   Li  Li9  1  0.338828  0.970142  0.579302  0  .  1
   Li  Li10  1  0.657749  0.618539  0.750068  0  .  1
   Li  Li11  1  0.968610  0.021163  0.750158  0  .  1
   Li  Li12  1  0.667597  0.950836  0.935358  0  .  1
   Li  Li13  1  0.976831  0.671900  0.585922  0  .  1
   Mn  Mn14  1  0.376642  0.326444  0.735886  0  .  1
   Mn  Mn15  1  0.690869  0.683332  0.219413  0  .  1
   O  O16  1  0.029975  0.321767  0.668524  0  .  1
   O  O17  1  0.343246  0.326338  0.980548  0  .  1
   O  O18  1  0.299570  0.683087  0.662925  0  .  1
   O  O19  1  0.658839  0.963913  0.670467  0  .  1
   O  O20  1  0.352649  0.981939  0.336162  0  .  1
   O  O21  1  0.679275  0.340247  0.307507  0  .  1
   O  O22  1  0.645367  0.638384  0.993256  0  .  1
   O  O23  1  0.959321  0.015627  0.986172  0  .  1
   O  O24  1  0.988854  0.660632  0.345854  0  .  1
 
