#\#CIF1.1
##########################################################################
#               Crystallographic Information Format file 
#               Produced by PyCifRW module
# 
#  This is a CIF file.  CIF has been adopted by the International
#  Union of Crystallography as the standard for data archiving and 
#  transmission.
#
#  For information on this file format, follow the CIF links at
#  http://www.iucr.org
##########################################################################

data_Li13Mn8O24
_symmetry_space_group_name_H-M          'P 1'
_cell_length_a                          4.97642012505
_cell_length_b                          8.65708286939
_cell_length_c                          10.1866880331
_cell_angle_alpha                       107.017225052
_cell_angle_beta                        99.7207590242
_cell_angle_gamma                       89.6534306171
_chemical_name_systematic               'Generated by pymatgen'
_symmetry_Int_Tables_number             1
_chemical_formula_structural            Li13Mn8O24
_chemical_formula_sum                   'Li13 Mn8 O24'
_cell_volume                            413.177957352
_cell_formula_units_Z                   1
loop_
  _symmetry_equiv_pos_site_id
  _symmetry_equiv_pos_as_xyz
   1  'x, y, z'
 
loop_
  _atom_site_type_symbol
  _atom_site_label
  _atom_site_symmetry_multiplicity
  _atom_site_fract_x
  _atom_site_fract_y
  _atom_site_fract_z
  _atom_site_attached_hydrogens
  _atom_site_B_iso_or_equiv
  _atom_site_occupancy
   Li  Li1  1  0.988899  0.674222  0.248644  0  .  1
   Li  Li2  1  0.978412  0.672314  0.753490  0  .  1
   Li  Li3  1  0.750000  0.750000  0.500000  0  .  1
   Li  Li4  1  0.521588  0.827686  0.246510  0  .  1
   Li  Li5  1  0.497183  0.495676  0.246702  0  .  1
   Li  Li6  1  0.475257  0.173898  0.250356  0  .  1
   Li  Li7  1  0.511101  0.825778  0.751356  0  .  1
   Li  Li8  1  0.502737  0.501390  0.749007  0  .  1
   Li  Li9  1  0.480877  0.171493  0.748072  0  .  1
   Li  Li10  1  0.019123  0.328507  0.251928  0  .  1
   Li  Li11  1  0.997263  0.998610  0.250993  0  .  1
   Li  Li12  1  0.024743  0.326102  0.749644  0  .  1
   Li  Li13  1  0.002817  0.004324  0.753298  0  .  1
   Mn  Mn14  1  0.751261  0.415727  0.999687  0  .  1
   Mn  Mn15  1  0.748739  0.084273  0.000313  0  .  1
   Mn  Mn16  1  0.753112  0.413649  0.499913  0  .  1
   Mn  Mn17  1  0.746888  0.086351  0.500087  0  .  1
   Mn  Mn18  1  0.250199  0.916485  0.000221  0  .  1
   Mn  Mn19  1  0.249801  0.583515  0.999779  0  .  1
   Mn  Mn20  1  0.250120  0.918630  0.499976  0  .  1
   Mn  Mn21  1  0.249880  0.581370  0.500024  0  .  1
   O  O22  1  0.889948  0.890853  0.385160  0  .  1
   O  O23  1  0.892549  0.531605  0.388040  0  .  1
   O  O24  1  0.840179  0.210583  0.385351  0  .  1
   O  O25  1  0.661817  0.289489  0.114466  0  .  1
   O  O26  1  0.896391  0.896831  0.883399  0  .  1
   O  O27  1  0.897321  0.524393  0.885002  0  .  1
   O  O28  1  0.602679  0.975607  0.114998  0  .  1
   O  O29  1  0.603609  0.603169  0.116601  0  .  1
   O  O30  1  0.838183  0.210511  0.885534  0  .  1
   O  O31  1  0.659821  0.289417  0.614649  0  .  1
   O  O32  1  0.607451  0.968395  0.611960  0  .  1
   O  O33  1  0.610052  0.609147  0.614840  0  .  1
   O  O34  1  0.396645  0.395274  0.383354  0  .  1
   O  O35  1  0.394879  0.026284  0.385816  0  .  1
   O  O36  1  0.354718  0.712048  0.388964  0  .  1
   O  O37  1  0.160638  0.788983  0.114461  0  .  1
   O  O38  1  0.397274  0.397006  0.882664  0  .  1
   O  O39  1  0.396213  0.024561  0.885710  0  .  1
   O  O40  1  0.103787  0.475439  0.114290  0  .  1
   O  O41  1  0.102726  0.102994  0.117336  0  .  1
   O  O42  1  0.339362  0.711017  0.885539  0  .  1
   O  O43  1  0.145282  0.787952  0.611036  0  .  1
   O  O44  1  0.105121  0.473716  0.614184  0  .  1
   O  O45  1  0.103355  0.104726  0.616646  0  .  1
 
