#\#CIF1.1
##########################################################################
#               Crystallographic Information Format file 
#               Produced by PyCifRW module
# 
#  This is a CIF file.  CIF has been adopted by the International
#  Union of Crystallography as the standard for data archiving and 
#  transmission.
#
#  For information on this file format, follow the CIF links at
#  http://www.iucr.org
##########################################################################

data_Li13Co15O28
_symmetry_space_group_name_H-M          'P 1'
_cell_length_a                          8.25594699608
_cell_length_b                          8.8900531618
_cell_length_c                          7.76922013663
_cell_angle_alpha                       104.981611984
_cell_angle_beta                        75.4629833095
_cell_angle_gamma                       76.0611738712
_chemical_name_systematic               'Generated by pymatgen'
_symmetry_Int_Tables_number             1
_chemical_formula_structural            Li13Co15O28
_chemical_formula_sum                   'Li13 Co15 O28'
_cell_volume                            503.896743494
_cell_formula_units_Z                   1
loop_
  _symmetry_equiv_pos_site_id
  _symmetry_equiv_pos_as_xyz
   1  'x, y, z'
 
loop_
  _atom_site_type_symbol
  _atom_site_label
  _atom_site_symmetry_multiplicity
  _atom_site_fract_x
  _atom_site_fract_y
  _atom_site_fract_z
  _atom_site_attached_hydrogens
  _atom_site_B_iso_or_equiv
  _atom_site_occupancy
   Li  Li1  1  0.711017  0.215204  0.928447  0  .  1
   Li  Li2  1  0.571573  0.072662  0.644679  0  .  1
   Li  Li3  1  0.429534  0.427741  0.854299  0  .  1
   Li  Li4  1  0.853637  0.857355  0.716461  0  .  1
   Li  Li5  1  0.853559  0.360220  0.217704  0  .  1
   Li  Li6  1  0.287534  0.286456  0.570008  0  .  1
   Li  Li7  1  0.712466  0.713544  0.429992  0  .  1
   Li  Li8  1  0.146363  0.142645  0.283539  0  .  1
   Li  Li9  1  0.570466  0.572259  0.145701  0  .  1
   Li  Li10  1  0.146441  0.639780  0.782296  0  .  1
   Li  Li11  1  0.000000  0.500000  0.500000  0  .  1
   Li  Li12  1  0.428427  0.927338  0.355321  0  .  1
   Li  Li13  1  0.288983  0.784796  0.071553  0  .  1
   Co  Co14  1  0.928458  0.433894  0.859042  0  .  1
   Co  Co15  1  0.786049  0.287201  0.571591  0  .  1
   Co  Co16  1  0.215642  0.213474  0.933909  0  .  1
   Co  Co17  1  0.639590  0.146864  0.287722  0  .  1
   Co  Co18  1  0.643240  0.640326  0.788078  0  .  1
   Co  Co19  1  0.931827  0.923276  0.353201  0  .  1
   Co  Co20  1  0.500000  0.000000  0.000000  0  .  1
   Co  Co21  1  0.068173  0.076724  0.646799  0  .  1
   Co  Co22  1  0.500000  0.500000  0.500000  0  .  1
   Co  Co23  1  0.356760  0.359674  0.211922  0  .  1
   Co  Co24  1  0.784358  0.786526  0.066091  0  .  1
   Co  Co25  1  0.360410  0.853136  0.712278  0  .  1
   Co  Co26  1  0.213951  0.712799  0.428409  0  .  1
   Co  Co27  1  0.000000  0.000000  0.000000  0  .  1
   Co  Co28  1  0.071542  0.566106  0.140958  0  .  1
   O  O29  1  0.969942  0.198944  0.929782  0  .  1
   O  O30  1  0.833415  0.074837  0.632281  0  .  1
   O  O31  1  0.694644  0.439766  0.856884  0  .  1
   O  O32  1  0.458274  0.210929  0.931621  0  .  1
   O  O33  1  0.885567  0.651212  0.796191  0  .  1
   O  O34  1  0.236960  0.002289  0.995071  0  .  1
   O  O35  1  0.890003  0.129158  0.272060  0  .  1
   O  O36  1  0.543730  0.297075  0.560390  0  .  1
   O  O37  1  0.976397  0.705145  0.404018  0  .  1
   O  O38  1  0.307449  0.074761  0.653493  0  .  1
   O  O39  1  0.733898  0.495367  0.509304  0  .  1
   O  O40  1  0.842531  0.568721  0.124253  0  .  1
   O  O41  1  0.405841  0.149578  0.278937  0  .  1
   O  O42  1  0.595051  0.364169  0.234583  0  .  1
   O  O43  1  0.404949  0.635831  0.765417  0  .  1
   O  O44  1  0.594159  0.850422  0.721063  0  .  1
   O  O45  1  0.157469  0.431279  0.875747  0  .  1
   O  O46  1  0.692551  0.925239  0.346507  0  .  1
   O  O47  1  0.023603  0.294855  0.595982  0  .  1
   O  O48  1  0.266102  0.504633  0.490696  0  .  1
   O  O49  1  0.456270  0.702925  0.439610  0  .  1
   O  O50  1  0.305356  0.560234  0.143116  0  .  1
   O  O51  1  0.114433  0.348788  0.203809  0  .  1
   O  O52  1  0.109997  0.870842  0.727940  0  .  1
   O  O53  1  0.541726  0.789071  0.068379  0  .  1
   O  O54  1  0.763040  0.997710  0.004929  0  .  1
   O  O55  1  0.166585  0.925163  0.367719  0  .  1
   O  O56  1  0.030058  0.801056  0.070218  0  .  1
 
