#\#CIF1.1
##########################################################################
#               Crystallographic Information Format file 
#               Produced by PyCifRW module
# 
#  This is a CIF file.  CIF has been adopted by the International
#  Union of Crystallography as the standard for data archiving and 
#  transmission.
#
#  For information on this file format, follow the CIF links at
#  http://www.iucr.org
##########################################################################

data_Li14Ti21O48
_symmetry_space_group_name_H-M          'P 1'
_cell_length_a                          5.96474578464
_cell_length_b                          5.9647455926
_cell_length_c                          35.7980246658
_cell_angle_alpha                       60.0515429808
_cell_angle_beta                        60.0515440467
_cell_angle_gamma                       60.0334975995
_chemical_name_systematic               'Generated by pymatgen'
_symmetry_Int_Tables_number             1
_chemical_formula_structural            Li14Ti21O48
_chemical_formula_sum                   'Li14 Ti21 O48'
_cell_volume                            901.520975319
_cell_formula_units_Z                   1
loop_
  _symmetry_equiv_pos_site_id
  _symmetry_equiv_pos_as_xyz
   1  'x, y, z'
 
loop_
  _atom_site_type_symbol
  _atom_site_label
  _atom_site_symmetry_multiplicity
  _atom_site_fract_x
  _atom_site_fract_y
  _atom_site_fract_z
  _atom_site_attached_hydrogens
  _atom_site_B_iso_or_equiv
  _atom_site_occupancy
   Li  Li1  1  0.003589  0.003589  0.165074  0  .  1
   Li  Li2  1  0.247649  0.247649  0.042461  0  .  1
   Li  Li3  1  0.002923  0.002923  0.331921  0  .  1
   Li  Li4  1  0.248173  0.248173  0.209215  0  .  1
   Li  Li5  1  0.625178  0.625178  0.187266  0  .  1
   Li  Li6  1  0.247075  0.247075  0.376438  0  .  1
   Li  Li7  1  0.002805  0.002805  0.498623  0  .  1
   Li  Li8  1  1.001812  1.001812  0.667991  0  .  1
   Li  Li9  1  0.243797  0.243797  0.543948  0  .  1
   Li  Li10  1  0.245434  0.245434  0.709189  0  .  1
   Li  Li11  1  0.625559  0.625559  0.521378  0  .  1
   Li  Li12  1  0.004177  0.004177  0.832422  0  .  1
   Li  Li13  1  0.250060  0.250060  0.873389  0  .  1
   Li  Li14  1  0.625141  0.625141  0.770645  0  .  1
   O  O15  1  0.389924  0.389924  0.064330  0  .  1
   O  O16  1  0.390223  0.832238  0.064411  0  .  1
   O  O17  1  0.386557  0.386557  0.140057  0  .  1
   O  O18  1  0.832238  0.390223  0.064411  0  .  1
   O  O19  1  0.373898  0.373898  0.235606  0  .  1
   O  O20  1  0.409526  0.876421  0.139642  0  .  1
   O  O21  1  0.876421  0.409526  0.139642  0  .  1
   O  O22  1  0.386252  0.386252  0.306858  0  .  1
   O  O23  1  0.373905  0.838342  0.235596  0  .  1
   O  O24  1  0.859401  0.859401  0.070395  0  .  1
   O  O25  1  0.838342  0.373905  0.235596  0  .  1
   O  O26  1  0.876098  0.876098  0.139837  0  .  1
   O  O27  1  0.390661  0.390661  0.397415  0  .  1
   O  O28  1  0.416021  0.859263  0.310904  0  .  1
   O  O29  1  0.859263  0.416021  0.310904  0  .  1
   O  O30  1  0.387134  0.387134  0.473129  0  .  1
   O  O31  1  0.862687  0.862687  0.235280  0  .  1
   O  O32  1  0.390748  0.834035  0.397439  0  .  1
   O  O33  1  0.859356  0.859356  0.310912  0  .  1
   O  O34  1  0.834035  0.390748  0.397439  0  .  1
   O  O35  1  0.374828  0.374828  0.568385  0  .  1
   O  O36  1  0.411643  0.876124  0.472765  0  .  1
   O  O37  1  0.876124  0.411643  0.472765  0  .  1
   O  O38  1  0.863750  0.863750  0.401476  0  .  1
   O  O39  1  0.372648  0.836924  0.569072  0  .  1
   O  O40  1  0.386138  0.386138  0.639658  0  .  1
   O  O41  1  0.836924  0.372648  0.569072  0  .  1
   O  O42  1  0.876122  0.876122  0.472743  0  .  1
   O  O43  1  0.387431  0.387431  0.730510  0  .  1
   O  O44  1  0.420867  0.861282  0.642441  0  .  1
   O  O45  1  0.861282  0.420867  0.642441  0  .  1
   O  O46  1  0.378493  0.378493  0.805076  0  .  1
   O  O47  1  0.378019  0.840323  0.728251  0  .  1
   O  O48  1  0.864922  0.864922  0.567737  0  .  1
   O  O49  1  0.840323  0.378019  0.728251  0  .  1
   O  O50  1  0.861684  0.861684  0.643691  0  .  1
   O  O51  1  0.409452  0.870886  0.813232  0  .  1
   O  O52  1  0.387530  0.387530  0.898260  0  .  1
   O  O53  1  0.870886  0.409452  0.813232  0  .  1
   O  O54  1  0.386615  0.386615  0.973228  0  .  1
   O  O55  1  0.871317  0.871317  0.736396  0  .  1
   O  O56  1  0.385677  0.833365  0.899526  0  .  1
   O  O57  1  0.833365  0.385677  0.899526  0  .  1
   O  O58  1  0.861163  0.861163  0.811327  0  .  1
   O  O59  1  0.423422  0.860115  0.976419  0  .  1
   O  O60  1  0.860115  0.423422  0.976419  0  .  1
   O  O61  1  0.863638  0.863638  0.901885  0  .  1
   O  O62  1  0.860373  0.860373  0.976446  0  .  1
   Ti  Ti63  1  0.113068  0.626308  0.105885  0  .  1
   Ti  Ti64  1  0.626308  0.113068  0.105885  0  .  1
   Ti  Ti65  1  0.621678  0.621678  0.020998  0  .  1
   Ti  Ti66  1  0.626774  0.626774  0.105405  0  .  1
   Ti  Ti67  1  0.135052  0.624886  0.269178  0  .  1
   Ti  Ti68  1  0.624886  0.135052  0.269178  0  .  1
   Ti  Ti69  1  0.114932  0.625116  0.439163  0  .  1
   Ti  Ti70  1  0.625065  0.625065  0.269124  0  .  1
   Ti  Ti71  1  0.625116  0.114932  0.439163  0  .  1
   Ti  Ti72  1  0.625027  0.625027  0.354176  0  .  1
   Ti  Ti73  1  0.135361  0.626274  0.601639  0  .  1
   Ti  Ti74  1  0.624816  0.624816  0.439286  0  .  1
   Ti  Ti75  1  0.626274  0.135361  0.601639  0  .  1
   Ti  Ti76  1  0.622296  0.622296  0.604502  0  .  1
   Ti  Ti77  1  0.127004  0.625356  0.770334  0  .  1
   Ti  Ti78  1  0.625356  0.127004  0.770334  0  .  1
   Ti  Ti79  1  0.632456  0.632456  0.689879  0  .  1
   Ti  Ti80  1  0.122806  0.626118  0.938615  0  .  1
   Ti  Ti81  1  0.626118  0.122806  0.938615  0  .  1
   Ti  Ti82  1  0.621694  0.621694  0.850308  0  .  1
   Ti  Ti83  1  0.627100  0.627100  0.936703  0  .  1
 
