#\#CIF1.1
##########################################################################
#               Crystallographic Information Format file 
#               Produced by PyCifRW module
# 
#  This is a CIF file.  CIF has been adopted by the International
#  Union of Crystallography as the standard for data archiving and 
#  transmission.
#
#  For information on this file format, follow the CIF links at
#  http://www.iucr.org
##########################################################################

data_Li14Co13O28
_symmetry_space_group_name_H-M          'P 1'
_cell_length_a                          8.05935373335
_cell_length_b                          8.55269924962
_cell_length_c                          7.4991820498
_cell_angle_alpha                       104.528609178
_cell_angle_beta                        105.436916441
_cell_angle_gamma                       102.779877743
_chemical_name_systematic               'Generated by pymatgen'
_symmetry_Int_Tables_number             1
_chemical_formula_structural            Li14Co13O28
_chemical_formula_sum                   'Li14 Co13 O28'
_cell_volume                            458.785536168
_cell_formula_units_Z                   1
loop_
  _symmetry_equiv_pos_site_id
  _symmetry_equiv_pos_as_xyz
   1  'x, y, z'
 
loop_
  _atom_site_type_symbol
  _atom_site_label
  _atom_site_symmetry_multiplicity
  _atom_site_fract_x
  _atom_site_fract_y
  _atom_site_fract_z
  _atom_site_attached_hydrogens
  _atom_site_B_iso_or_equiv
  _atom_site_occupancy
   Li  Li1  1  0.276513  0.208214  0.932656  0  .  1
   Li  Li2  1  0.070901  0.431767  0.857318  0  .  1
   Li  Li3  1  0.429437  0.072596  0.644887  0  .  1
   Li  Li4  1  0.216799  0.288832  0.577742  0  .  1
   Li  Li5  1  0.860525  0.654104  0.793039  0  .  1
   Li  Li6  1  0.000000  0.500000  0.500000  0  .  1
   Li  Li7  1  0.654576  0.860876  0.723945  0  .  1
   Li  Li8  1  0.345424  0.139124  0.276055  0  .  1
   Li  Li9  1  0.139475  0.345896  0.206961  0  .  1
   Li  Li10  1  0.783201  0.711168  0.422258  0  .  1
   Li  Li11  1  0.500000  0.000000  0.000000  0  .  1
   Li  Li12  1  0.570563  0.927404  0.355113  0  .  1
   Li  Li13  1  0.929099  0.568233  0.142682  0  .  1
   Li  Li14  1  0.723487  0.791786  0.067344  0  .  1
   Co  Co15  1  0.789421  0.211573  0.929146  0  .  1
   Co  Co16  1  0.572031  0.428848  0.857618  0  .  1
   Co  Co17  1  0.929131  0.070455  0.646157  0  .  1
   Co  Co18  1  0.356468  0.643768  0.786008  0  .  1
   Co  Co19  1  0.713815  0.284604  0.571651  0  .  1
   Co  Co20  1  0.139246  0.860337  0.719993  0  .  1
   Co  Co21  1  0.500000  0.500000  0.500000  0  .  1
   Co  Co22  1  0.860754  0.139663  0.280007  0  .  1
   Co  Co23  1  0.286185  0.715396  0.428349  0  .  1
   Co  Co24  1  0.643532  0.356232  0.213992  0  .  1
   Co  Co25  1  0.070869  0.929545  0.353843  0  .  1
   Co  Co26  1  0.427969  0.571152  0.142382  0  .  1
   Co  Co27  1  0.210579  0.788427  0.070854  0  .  1
   O  O28  1  0.015138  0.211711  0.907767  0  .  1
   O  O29  1  0.553370  0.230101  0.937306  0  .  1
   O  O30  1  0.337464  0.444103  0.865417  0  .  1
   O  O31  1  0.162929  0.057031  0.637597  0  .  1
   O  O32  1  0.804195  0.412059  0.847812  0  .  1
   O  O33  1  0.694325  0.083426  0.652322  0  .  1
   O  O34  1  0.246880  0.976768  0.982868  0  .  1
   O  O35  1  0.120027  0.658014  0.794287  0  .  1
   O  O36  1  0.591341  0.629993  0.777300  0  .  1
   O  O37  1  0.480577  0.300431  0.580512  0  .  1
   O  O38  1  0.945201  0.268107  0.558778  0  .  1
   O  O39  1  0.373412  0.842420  0.704352  0  .  1
   O  O40  1  0.266101  0.516162  0.508840  0  .  1
   O  O41  1  0.090702  0.135268  0.300504  0  .  1
   O  O42  1  0.909298  0.864732  0.699496  0  .  1
   O  O43  1  0.733899  0.483838  0.491160  0  .  1
   O  O44  1  0.626588  0.157580  0.295648  0  .  1
   O  O45  1  0.054799  0.731893  0.441222  0  .  1
   O  O46  1  0.519423  0.699569  0.419487  0  .  1
   O  O47  1  0.408659  0.370007  0.222700  0  .  1
   O  O48  1  0.879973  0.341986  0.205713  0  .  1
   O  O49  1  0.753120  0.023232  0.017132  0  .  1
   O  O50  1  0.305675  0.916574  0.347678  0  .  1
   O  O51  1  0.195805  0.587941  0.152188  0  .  1
   O  O52  1  0.837071  0.942969  0.362403  0  .  1
   O  O53  1  0.662536  0.555897  0.134583  0  .  1
   O  O54  1  0.446630  0.769899  0.062694  0  .  1
   O  O55  1  0.984862  0.788289  0.092233  0  .  1
 
