#\#CIF1.1
##########################################################################
#               Crystallographic Information Format file 
#               Produced by PyCifRW module
# 
#  This is a CIF file.  CIF has been adopted by the International
#  Union of Crystallography as the standard for data archiving and 
#  transmission.
#
#  For information on this file format, follow the CIF links at
#  http://www.iucr.org
##########################################################################

data_Li14Mn2O9
_symmetry_space_group_name_H-M          'P 1'
_cell_length_a                          5.91665638009
_cell_length_b                          5.91668424844
_cell_length_c                          8.13279975002
_cell_angle_alpha                       89.9999318545
_cell_angle_beta                        89.9998495609
_cell_angle_gamma                       120.000453014
_chemical_name_systematic               'Generated by pymatgen'
_symmetry_Int_Tables_number             1
_chemical_formula_structural            Li14Mn2O9
_chemical_formula_sum                   'Li14 Mn2 O9'
_cell_volume                            246.560481224
_cell_formula_units_Z                   1
loop_
  _symmetry_equiv_pos_site_id
  _symmetry_equiv_pos_as_xyz
   1  'x, y, z'
 
loop_
  _atom_site_type_symbol
  _atom_site_label
  _atom_site_symmetry_multiplicity
  _atom_site_fract_x
  _atom_site_fract_y
  _atom_site_fract_z
  _atom_site_attached_hydrogens
  _atom_site_B_iso_or_equiv
  _atom_site_occupancy
   Li  Li1  1  0.064997  0.705605  0.904464  0  .  1
   Li  Li2  1  0.311140  0.937954  0.585231  0  .  1
   Li  Li3  1  0.062037  0.373202  0.585235  0  .  1
   Li  Li4  1  0.999996  0.000006  0.260306  0  .  1
   Li  Li5  1  0.999994  -0.000001  0.739696  0  .  1
   Li  Li6  1  0.294394  0.359397  0.904471  0  .  1
   Li  Li7  1  0.640583  0.934985  0.904465  0  .  1
   Li  Li8  1  0.373190  0.311156  0.414766  0  .  1
   Li  Li9  1  0.626793  0.688846  0.585234  0  .  1
   Li  Li10  1  0.359389  0.065003  0.095528  0  .  1
   Li  Li11  1  0.705608  0.640596  0.095540  0  .  1
   Li  Li12  1  0.937941  0.626798  0.414765  0  .  1
   Li  Li13  1  0.688835  0.062044  0.414764  0  .  1
   Li  Li14  1  0.934993  0.294405  0.095531  0  .  1
   Mn  Mn15  1  0.333329  0.666682  0.252203  0  .  1
   Mn  Mn16  1  0.666657  0.333325  0.747806  0  .  1
   O  O17  1  0.309948  0.979076  0.341436  0  .  1
   O  O18  1  0.020919  0.330889  0.341436  0  .  1
   O  O19  1  0.333317  0.666658  0.004599  0  .  1
   O  O20  1  0.000003  0.999994  0.000002  0  .  1
   O  O21  1  0.330872  0.309951  0.658561  0  .  1
   O  O22  1  0.669110  0.690054  0.341438  0  .  1
   O  O23  1  0.666659  0.333333  0.995402  0  .  1
   O  O24  1  0.979058  0.669114  0.658560  0  .  1
   O  O25  1  0.690036  0.020925  0.658563  0  .  1
 
