#\#CIF1.1
##########################################################################
#               Crystallographic Information Format file 
#               Produced by PyCifRW module
# 
#  This is a CIF file.  CIF has been adopted by the International
#  Union of Crystallography as the standard for data archiving and 
#  transmission.
#
#  For information on this file format, follow the CIF links at
#  http://www.iucr.org
##########################################################################

data_Li14Mn2S9
_symmetry_space_group_name_H-M          'P 1'
_cell_length_a                          7.07329921004
_cell_length_b                          7.07325415798
_cell_length_c                          9.91299654011
_cell_angle_alpha                       89.9994394839
_cell_angle_beta                        90.0002837637
_cell_angle_gamma                       119.999969109
_chemical_name_systematic               'Generated by pymatgen'
_symmetry_Int_Tables_number             1
_chemical_formula_structural            Li14Mn2S9
_chemical_formula_sum                   'Li14 Mn2 S9'
_cell_volume                            429.513693903
_cell_formula_units_Z                   1
loop_
  _symmetry_equiv_pos_site_id
  _symmetry_equiv_pos_as_xyz
   1  'x, y, z'
 
loop_
  _atom_site_type_symbol
  _atom_site_label
  _atom_site_symmetry_multiplicity
  _atom_site_fract_x
  _atom_site_fract_y
  _atom_site_fract_z
  _atom_site_attached_hydrogens
  _atom_site_B_iso_or_equiv
  _atom_site_occupancy
   Li  Li1  1  0.024665  0.677565  0.910184  0  .  1
   Li  Li2  1  0.323292  0.958620  0.589283  0  .  1
   Li  Li3  1  0.041357  0.364646  0.589275  0  .  1
   Li  Li4  1  -0.000002  0.000008  0.251952  0  .  1
   Li  Li5  1  -0.000004  0.999982  0.748040  0  .  1
   Li  Li6  1  0.322433  0.347120  0.910192  0  .  1
   Li  Li7  1  0.652891  0.975320  0.910196  0  .  1
   Li  Li8  1  0.364667  0.323304  0.410726  0  .  1
   Li  Li9  1  0.635340  0.676693  0.589274  0  .  1
   Li  Li10  1  0.347094  0.024663  0.089813  0  .  1
   Li  Li11  1  0.677575  0.652897  0.089812  0  .  1
   Li  Li12  1  0.958632  0.635340  0.410727  0  .  1
   Li  Li13  1  0.676710  0.041369  0.410732  0  .  1
   Li  Li14  1  0.975325  0.322445  0.089810  0  .  1
   Mn  Mn15  1  0.333340  0.666647  0.255504  0  .  1
   Mn  Mn16  1  0.666651  0.333360  0.744450  0  .  1
   S  S17  1  0.310449  0.971603  0.338472  0  .  1
   S  S18  1  0.028395  0.338864  0.338474  0  .  1
   S  S19  1  0.333309  0.666693  0.015032  0  .  1
   S  S20  1  0.999944  0.000048  0.999991  0  .  1
   S  S21  1  0.338857  0.310453  0.661545  0  .  1
   S  S22  1  0.661134  0.689537  0.338459  0  .  1
   S  S23  1  0.666627  0.333338  0.984979  0  .  1
   S  S24  1  0.971601  0.661113  0.661536  0  .  1
   S  S25  1  0.689518  0.028374  0.661543  0  .  1
 
