#\#CIF1.1
##########################################################################
#               Crystallographic Information Format file 
#               Produced by PyCifRW module
# 
#  This is a CIF file.  CIF has been adopted by the International
#  Union of Crystallography as the standard for data archiving and 
#  transmission.
#
#  For information on this file format, follow the CIF links at
#  http://www.iucr.org
##########################################################################

data_Li14Fe4O13
_symmetry_space_group_name_H-M          'P 1'
_cell_length_a                          5.5300781183
_cell_length_b                          27.39099274
_cell_length_c                          5.31866499778
_cell_angle_alpha                       90.0
_cell_angle_beta                        120.757066457
_cell_angle_gamma                       90.0
_chemical_name_systematic               'Generated by pymatgen'
_symmetry_Int_Tables_number             1
_chemical_formula_structural            Li14Fe4O13
_chemical_formula_sum                   'Li28 Fe8 O26'
_cell_volume                            692.322416992
_cell_formula_units_Z                   2
loop_
  _symmetry_equiv_pos_site_id
  _symmetry_equiv_pos_as_xyz
   1  'x, y, z'
 
loop_
  _atom_site_type_symbol
  _atom_site_label
  _atom_site_symmetry_multiplicity
  _atom_site_fract_x
  _atom_site_fract_y
  _atom_site_fract_z
  _atom_site_attached_hydrogens
  _atom_site_B_iso_or_equiv
  _atom_site_occupancy
   Li  Li1  1  0.150107  0.323422  0.984694  0  .  1
   Li  Li2  1  0.208187  0.557705  0.998884  0  .  1
   Li  Li3  1  0.150107  0.176578  0.484694  0  .  1
   Li  Li4  1  0.208187  0.942295  0.498884  0  .  1
   Li  Li5  1  0.221910  0.387712  0.528112  0  .  1
   Li  Li6  1  0.345749  0.725270  0.576956  0  .  1
   Li  Li7  1  0.266581  0.501295  0.534171  0  .  1
   Li  Li8  1  0.299640  0.280493  0.567540  0  .  1
   Li  Li9  1  0.304629  0.613958  0.525668  0  .  1
   Li  Li10  1  0.221910  0.112288  0.028112  0  .  1
   Li  Li11  1  0.695371  0.113958  0.974332  0  .  1
   Li  Li12  1  0.345749  0.774730  0.076956  0  .  1
   Li  Li13  1  0.266581  0.998705  0.034171  0  .  1
   Li  Li14  1  0.299640  0.219507  0.067540  0  .  1
   Li  Li15  1  0.700360  0.780493  0.932460  0  .  1
   Li  Li16  1  0.733419  0.001295  0.965829  0  .  1
   Li  Li17  1  0.654251  0.225270  0.923044  0  .  1
   Li  Li18  1  0.304629  0.886042  0.025668  0  .  1
   Li  Li19  1  0.778090  0.887712  0.971888  0  .  1
   Li  Li20  1  0.695371  0.386042  0.474332  0  .  1
   Li  Li21  1  0.700360  0.719507  0.432460  0  .  1
   Li  Li22  1  0.733419  0.498705  0.465829  0  .  1
   Li  Li23  1  0.654251  0.274730  0.423044  0  .  1
   Li  Li24  1  0.778090  0.612288  0.471888  0  .  1
   Li  Li25  1  0.791813  0.057705  0.501116  0  .  1
   Li  Li26  1  0.849893  0.823422  0.515306  0  .  1
   Li  Li27  1  0.791813  0.442295  0.001116  0  .  1
   Li  Li28  1  0.849893  0.676578  0.015306  0  .  1
   Fe  Fe29  1  0.306469  0.668611  0.990706  0  .  1
   Fe  Fe30  1  0.271815  0.055402  0.501178  0  .  1
   Fe  Fe31  1  0.306469  0.831389  0.490706  0  .  1
   Fe  Fe32  1  0.728185  0.555402  0.998822  0  .  1
   Fe  Fe33  1  0.271815  0.444598  0.001178  0  .  1
   Fe  Fe34  1  0.693531  0.168611  0.509294  0  .  1
   Fe  Fe35  1  0.728185  0.944598  0.498822  0  .  1
   Fe  Fe36  1  0.693531  0.331389  0.009294  0  .  1
   O  O37  1  0.909230  0.441091  0.682540  0  .  1
   O  O38  1  0.936632  0.672309  0.684926  0  .  1
   O  O39  1  0.909230  0.058909  0.182540  0  .  1
   O  O40  1  0.449054  0.279454  0.995229  0  .  1
   O  O41  1  0.224221  0.056473  0.820671  0  .  1
   O  O42  1  0.265442  0.825739  0.817626  0  .  1
   O  O43  1  0.936632  0.827691  0.184926  0  .  1
   O  O44  1  0.505808  0.391214  0.005156  0  .  1
   O  O45  1  0.449054  0.220546  0.495229  0  .  1
   O  O46  1  0.224221  0.443527  0.320671  0  .  1
   O  O47  1  0.265442  0.674261  0.317626  0  .  1
   O  O48  1  0.494192  0.891214  0.494844  0  .  1
   O  O49  1  0.500000  0.000000  0.500000  0  .  1
   O  O50  1  0.505808  0.108786  0.505156  0  .  1
   O  O51  1  0.734558  0.325739  0.682374  0  .  1
   O  O52  1  0.775779  0.556473  0.679329  0  .  1
   O  O53  1  0.550946  0.779454  0.504771  0  .  1
   O  O54  1  0.494192  0.608786  0.994844  0  .  1
   O  O55  1  0.500000  0.500000  0.000000  0  .  1
   O  O56  1  0.063368  0.172309  0.815074  0  .  1
   O  O57  1  0.734558  0.174261  0.182374  0  .  1
   O  O58  1  0.775779  0.943527  0.179329  0  .  1
   O  O59  1  0.550946  0.720546  0.004771  0  .  1
   O  O60  1  0.090770  0.941091  0.817460  0  .  1
   O  O61  1  0.063368  0.327691  0.315074  0  .  1
   O  O62  1  0.090770  0.558909  0.317460  0  .  1
 
