#\#CIF1.1
##########################################################################
#               Crystallographic Information Format file 
#               Produced by PyCifRW module
# 
#  This is a CIF file.  CIF has been adopted by the International
#  Union of Crystallography as the standard for data archiving and 
#  transmission.
#
#  For information on this file format, follow the CIF links at
#  http://www.iucr.org
##########################################################################

data_Li15Mn2O12
_symmetry_space_group_name_H-M          'P 1'
_cell_length_a                          5.46979451476
_cell_length_b                          7.97355933792
_cell_length_c                          5.78851621384
_cell_angle_alpha                       94.0457242472
_cell_angle_beta                        90.0205817727
_cell_angle_gamma                       89.7211609397
_chemical_name_systematic               'Generated by pymatgen'
_symmetry_Int_Tables_number             1
_chemical_formula_structural            Li15Mn2O12
_chemical_formula_sum                   'Li15 Mn2 O12'
_cell_volume                            251.826696465
_cell_formula_units_Z                   1
loop_
  _symmetry_equiv_pos_site_id
  _symmetry_equiv_pos_as_xyz
   1  'x, y, z'
 
loop_
  _atom_site_type_symbol
  _atom_site_label
  _atom_site_symmetry_multiplicity
  _atom_site_fract_x
  _atom_site_fract_y
  _atom_site_fract_z
  _atom_site_attached_hydrogens
  _atom_site_B_iso_or_equiv
  _atom_site_occupancy
   Li  Li1  1  0.008249  0.645986  0.676593  0  .  1
   Li  Li2  1  0.876605  0.628971  0.261654  0  .  1
   Li  Li3  1  0.790435  0.911224  0.619791  0  .  1
   Li  Li4  1  0.804218  0.304189  0.945071  0  .  1
   Li  Li5  1  0.696018  0.204318  0.563002  0  .  1
   Li  Li6  1  0.660209  0.595677  0.892511  0  .  1
   Li  Li7  1  0.625851  0.875891  0.195169  0  .  1
   Li  Li8  1  0.489983  0.161386  0.194090  0  .  1
   Li  Li9  1  0.370925  0.099125  0.795426  0  .  1
   Li  Li10  1  0.338947  0.432602  0.069122  0  .  1
   Li  Li11  1  0.314752  0.793037  0.476540  0  .  1
   Li  Li12  1  0.222225  0.721295  0.035307  0  .  1
   Li  Li13  1  0.150972  0.067878  0.433757  0  .  1
   Li  Li14  1  0.143181  0.361848  0.722002  0  .  1
   Li  Li15  1  0.007512  0.345615  0.315474  0  .  1
   Mn  Mn16  1  0.503248  0.496289  0.490133  0  .  1
   Mn  Mn17  1  0.996479  0.004470  0.007715  0  .  1
   O  O18  1  0.874522  0.771739  0.999966  0  .  1
   O  O19  1  0.831010  0.069106  0.304011  0  .  1
   O  O20  1  0.804630  0.427464  0.657155  0  .  1
   O  O21  1  0.703865  0.083098  0.854631  0  .  1
   O  O22  1  0.663570  0.431410  0.194653  0  .  1
   O  O23  1  0.647876  0.718353  0.483494  0  .  1
   O  O24  1  0.360660  0.265384  0.497493  0  .  1
   O  O25  1  0.335486  0.560612  0.788205  0  .  1
   O  O26  1  0.290343  0.938762  0.175420  0  .  1
   O  O27  1  0.208720  0.572314  0.330879  0  .  1
   O  O28  1  0.134120  0.933659  0.702836  0  .  1
   O  O29  1  0.143143  0.231787  0.000813  0  .  1
 
