#\#CIF1.1
##########################################################################
#               Crystallographic Information Format file 
#               Produced by PyCifRW module
# 
#  This is a CIF file.  CIF has been adopted by the International
#  Union of Crystallography as the standard for data archiving and 
#  transmission.
#
#  For information on this file format, follow the CIF links at
#  http://www.iucr.org
##########################################################################

data_Li15(FeO4)4
_symmetry_space_group_name_H-M          'P 1'
_cell_length_a                          9.16738726624
_cell_length_b                          9.27088677
_cell_length_c                          9.38559853689
_cell_angle_alpha                       90.0
_cell_angle_beta                        90.4680131846
_cell_angle_gamma                       90.0
_chemical_name_systematic               'Generated by pymatgen'
_symmetry_Int_Tables_number             1
_chemical_formula_structural            Li15(FeO4)4
_chemical_formula_sum                   'Li30 Fe8 O32'
_cell_volume                            797.653618647
_cell_formula_units_Z                   2
loop_
  _symmetry_equiv_pos_site_id
  _symmetry_equiv_pos_as_xyz
   1  'x, y, z'
 
loop_
  _atom_site_type_symbol
  _atom_site_label
  _atom_site_symmetry_multiplicity
  _atom_site_fract_x
  _atom_site_fract_y
  _atom_site_fract_z
  _atom_site_attached_hydrogens
  _atom_site_B_iso_or_equiv
  _atom_site_occupancy
   Li  Li1  1  0.104363  0.614903  0.143504  0  .  1
   Li  Li2  1  0.104363  0.885097  0.643504  0  .  1
   Li  Li3  1  0.124466  0.848403  0.363710  0  .  1
   Li  Li4  1  0.124466  0.651597  0.863710  0  .  1
   Li  Li5  1  0.357457  0.129554  0.858477  0  .  1
   Li  Li6  1  0.357457  0.370446  0.358477  0  .  1
   Li  Li7  1  0.389147  0.620789  0.843397  0  .  1
   Li  Li8  1  0.389147  0.879211  0.343397  0  .  1
   Li  Li9  1  0.400409  0.122830  0.135828  0  .  1
   Li  Li10  1  0.400409  0.377170  0.635828  0  .  1
   Li  Li11  1  0.591629  0.619489  0.372371  0  .  1
   Li  Li12  1  0.591629  0.880511  0.872371  0  .  1
   Li  Li13  1  0.607038  0.115573  0.651703  0  .  1
   Li  Li14  1  0.607038  0.384427  0.151703  0  .  1
   Li  Li15  1  0.619961  0.647822  0.631116  0  .  1
   Li  Li16  1  0.619961  0.852178  0.131116  0  .  1
   Li  Li17  1  0.657787  0.612927  0.893269  0  .  1
   Li  Li18  1  0.657787  0.887073  0.393269  0  .  1
   Li  Li19  1  0.667689  0.114537  0.104280  0  .  1
   Li  Li20  1  0.667689  0.385463  0.604280  0  .  1
   Li  Li21  1  0.827656  0.614121  0.104992  0  .  1
   Li  Li22  1  0.827656  0.885879  0.604992  0  .  1
   Li  Li23  1  0.861582  0.382964  0.394468  0  .  1
   Li  Li24  1  0.861582  0.117036  0.894468  0  .  1
   Li  Li25  1  0.878299  0.143222  0.638057  0  .  1
   Li  Li26  1  0.878299  0.356778  0.138057  0  .  1
   Li  Li27  1  0.894392  0.618357  0.647486  0  .  1
   Li  Li28  1  0.894392  0.881643  0.147486  0  .  1
   Li  Li29  1  0.905160  0.118106  0.366232  0  .  1
   Li  Li30  1  0.905160  0.381894  0.866232  0  .  1
   Fe  Fe31  1  0.119726  0.136082  0.122593  0  .  1
   Fe  Fe32  1  0.119726  0.363918  0.622593  0  .  1
   Fe  Fe33  1  0.382242  0.640083  0.125083  0  .  1
   Fe  Fe34  1  0.382242  0.859917  0.625083  0  .  1
   Fe  Fe35  1  0.617482  0.154719  0.378367  0  .  1
   Fe  Fe36  1  0.617482  0.345281  0.878367  0  .  1
   Fe  Fe37  1  0.879976  0.652942  0.378084  0  .  1
   Fe  Fe38  1  0.879976  0.847058  0.878084  0  .  1
   O  O39  1  0.993175  0.269308  0.522223  0  .  1
   O  O40  1  0.993175  0.230692  0.022223  0  .  1
   O  O41  1  0.029399  0.016054  0.233345  0  .  1
   O  O42  1  0.029399  0.483946  0.733345  0  .  1
   O  O43  1  0.235303  0.046385  0.016322  0  .  1
   O  O44  1  0.235303  0.453615  0.516322  0  .  1
   O  O45  1  0.234340  0.238509  0.221324  0  .  1
   O  O46  1  0.234340  0.261491  0.721324  0  .  1
   O  O47  1  0.261206  0.738609  0.237996  0  .  1
   O  O48  1  0.261206  0.761391  0.737996  0  .  1
   O  O49  1  0.256168  0.568813  0.000144  0  .  1
   O  O50  1  0.256168  0.931187  0.500144  0  .  1
   O  O51  1  0.475207  0.514889  0.242504  0  .  1
   O  O52  1  0.475207  0.985111  0.742504  0  .  1
   O  O53  1  0.517394  0.779285  0.503246  0  .  1
   O  O54  1  0.517394  0.720715  0.003246  0  .  1
   O  O55  1  0.516500  0.225768  0.000158  0  .  1
   O  O56  1  0.516500  0.274232  0.500158  0  .  1
   O  O57  1  0.537071  0.009688  0.254268  0  .  1
   O  O58  1  0.537071  0.490312  0.754268  0  .  1
   O  O59  1  0.747858  0.045915  0.497956  0  .  1
   O  O60  1  0.747858  0.454085  0.997956  0  .  1
   O  O61  1  0.752134  0.251269  0.261105  0  .  1
   O  O62  1  0.752134  0.248731  0.761105  0  .  1
   O  O63  1  0.757271  0.758427  0.259416  0  .  1
   O  O64  1  0.757271  0.741573  0.759416  0  .  1
   O  O65  1  0.759639  0.540893  0.498662  0  .  1
   O  O66  1  0.759639  0.959107  0.998662  0  .  1
   O  O67  1  0.948730  0.981249  0.753467  0  .  1
   O  O68  1  0.948730  0.518751  0.253467  0  .  1
   O  O69  1  0.972626  0.726829  0.001768  0  .  1
   O  O70  1  0.972626  0.773171  0.501768  0  .  1
 
