#\#CIF1.1
##########################################################################
#               Crystallographic Information Format file 
#               Produced by PyCifRW module
# 
#  This is a CIF file.  CIF has been adopted by the International
#  Union of Crystallography as the standard for data archiving and 
#  transmission.
#
#  For information on this file format, follow the CIF links at
#  http://www.iucr.org
##########################################################################

data_Li15(FeO6)2
_symmetry_space_group_name_H-M          'P 1'
_cell_length_a                          5.44830341001
_cell_length_b                          8.09213216836
_cell_length_c                          5.82502040744
_cell_angle_alpha                       93.9129012642
_cell_angle_beta                        90.4388789381
_cell_angle_gamma                       89.1480855506
_chemical_name_systematic               'Generated by pymatgen'
_symmetry_Int_Tables_number             1
_chemical_formula_structural            Li15(FeO6)2
_chemical_formula_sum                   'Li15 Fe2 O12'
_cell_volume                            256.18311981
_cell_formula_units_Z                   1
loop_
  _symmetry_equiv_pos_site_id
  _symmetry_equiv_pos_as_xyz
   1  'x, y, z'
 
loop_
  _atom_site_type_symbol
  _atom_site_label
  _atom_site_symmetry_multiplicity
  _atom_site_fract_x
  _atom_site_fract_y
  _atom_site_fract_z
  _atom_site_attached_hydrogens
  _atom_site_B_iso_or_equiv
  _atom_site_occupancy
   Li  Li1  1  0.980976  0.652618  0.689387  0  .  1
   Li  Li2  1  0.854109  0.637083  0.274174  0  .  1
   Li  Li3  1  0.857865  0.934105  0.561878  0  .  1
   Li  Li4  1  0.779553  0.273501  0.967821  0  .  1
   Li  Li5  1  0.632442  0.899371  0.202962  0  .  1
   Li  Li6  1  0.687311  0.207108  0.519339  0  .  1
   Li  Li7  1  0.658384  0.565116  0.933459  0  .  1
   Li  Li8  1  0.516906  0.838961  0.806824  0  .  1
   Li  Li9  1  0.340452  0.408022  0.101762  0  .  1
   Li  Li10  1  0.302956  0.795080  0.437319  0  .  1
   Li  Li11  1  0.373193  0.127574  0.805219  0  .  1
   Li  Li12  1  0.191726  0.698836  0.054318  0  .  1
   Li  Li13  1  0.207106  0.086227  0.384674  0  .  1
   Li  Li14  1  0.125462  0.371516  0.742999  0  .  1
   Li  Li15  1  0.002483  0.351709  0.319388  0  .  1
   Fe  Fe16  1  0.496178  0.503027  0.510358  0  .  1
   Fe  Fe17  1  0.004906  0.994991  0.989894  0  .  1
   O  O18  1  0.849744  0.760919  0.997100  0  .  1
   O  O19  1  0.861270  0.065287  0.293947  0  .  1
   O  O20  1  0.786609  0.426354  0.671332  0  .  1
   O  O21  1  0.642029  0.732405  0.503326  0  .  1
   O  O22  1  0.714152  0.060359  0.819821  0  .  1
   O  O23  1  0.668763  0.439750  0.215086  0  .  1
   O  O24  1  0.330785  0.565866  0.804939  0  .  1
   O  O25  1  0.294924  0.914341  0.148637  0  .  1
   O  O26  1  0.348677  0.282085  0.516188  0  .  1
   O  O27  1  0.200227  0.572638  0.341627  0  .  1
   O  O28  1  0.178766  0.935002  0.696545  0  .  1
   O  O29  1  0.129733  0.236742  0.001556  0  .  1
 
