#\#CIF1.1
##########################################################################
#               Crystallographic Information Format file 
#               Produced by PyCifRW module
# 
#  This is a CIF file.  CIF has been adopted by the International
#  Union of Crystallography as the standard for data archiving and 
#  transmission.
#
#  For information on this file format, follow the CIF links at
#  http://www.iucr.org
##########################################################################

data_Li17Cr2O12
_symmetry_space_group_name_H-M          'P 1'
_cell_length_a                          5.93237873822
_cell_length_b                          5.47705082399
_cell_length_c                          8.07882793809
_cell_angle_alpha                       89.9704553691
_cell_angle_beta                        83.3532114856
_cell_angle_gamma                       90.2998288587
_chemical_name_systematic               'Generated by pymatgen'
_symmetry_Int_Tables_number             1
_chemical_formula_structural            Li17Cr2O12
_chemical_formula_sum                   'Li17 Cr2 O12'
_cell_volume                            260.728702881
_cell_formula_units_Z                   1
loop_
  _symmetry_equiv_pos_site_id
  _symmetry_equiv_pos_as_xyz
   1  'x, y, z'
 
loop_
  _atom_site_type_symbol
  _atom_site_label
  _atom_site_symmetry_multiplicity
  _atom_site_fract_x
  _atom_site_fract_y
  _atom_site_fract_z
  _atom_site_attached_hydrogens
  _atom_site_B_iso_or_equiv
  _atom_site_occupancy
   Li  Li1  1  0.320854  0.994243  0.158568  0  .  1
   Li  Li2  1  0.729604  0.864722  0.622077  0  .  1
   Li  Li3  1  0.421852  0.823078  0.920913  0  .  1
   Li  Li4  1  0.043429  0.797608  0.301332  0  .  1
   Li  Li5  1  0.085346  0.670485  0.571269  0  .  1
   Li  Li6  1  0.458962  0.654440  0.210328  0  .  1
   Li  Li7  1  0.776741  0.646338  0.871081  0  .  1
   Li  Li8  1  0.174679  0.486906  0.842952  0  .  1
   Li  Li9  1  0.830871  0.514361  0.148919  0  .  1
   Li  Li10  1  0.217536  0.373852  0.124657  0  .  1
   Li  Li11  1  0.914319  0.328676  0.429876  0  .  1
   Li  Li12  1  0.558560  0.309007  0.795558  0  .  1
   Li  Li13  1  0.938246  0.196551  0.707198  0  .  1
   Li  Li14  1  0.606808  0.188357  0.056570  0  .  1
   Li  Li15  1  0.263116  0.145082  0.398182  0  .  1
   Li  Li16  1  0.316987  0.999524  0.663346  0  .  1
   Li  Li17  1  0.672531  0.007595  0.337798  0  .  1
   Cr  Cr18  1  0.500997  0.497325  0.504173  0  .  1
   Cr  Cr19  1  0.995602  0.002171  0.996475  0  .  1
   O  O20  1  0.998472  0.861733  0.760729  0  .  1
   O  O21  1  0.677104  0.843562  0.072481  0  .  1
   O  O22  1  0.337529  0.801103  0.418572  0  .  1
   O  O23  1  0.167891  0.701115  0.078769  0  .  1
   O  O24  1  0.793662  0.651183  0.427509  0  .  1
   O  O25  1  0.503238  0.643003  0.725015  0  .  1
   O  O26  1  0.198335  0.348139  0.578589  0  .  1
   O  O27  1  0.495207  0.330645  0.270561  0  .  1
   O  O28  1  0.849580  0.321719  0.924256  0  .  1
   O  O29  1  0.656775  0.198459  0.574546  0  .  1
   O  O30  1  0.318048  0.158719  0.938560  0  .  1
   O  O31  1  0.015964  0.137826  0.239448  0  .  1
 
