#\#CIF1.1
##########################################################################
#               Crystallographic Information Format file 
#               Produced by PyCifRW module
# 
#  This is a CIF file.  CIF has been adopted by the International
#  Union of Crystallography as the standard for data archiving and 
#  transmission.
#
#  For information on this file format, follow the CIF links at
#  http://www.iucr.org
##########################################################################

data_Li17V16O32
_symmetry_space_group_name_H-M          'P 1'
_cell_length_a                          8.48062295892
_cell_length_b                          10.3914303646
_cell_length_c                          8.5166057758
_cell_angle_alpha                       65.8890849571
_cell_angle_beta                        89.9578909752
_cell_angle_gamma                       113.947171202
_chemical_name_systematic               'Generated by pymatgen'
_symmetry_Int_Tables_number             1
_chemical_formula_structural            Li17V16O32
_chemical_formula_sum                   'Li17 V16 O32'
_cell_volume                            613.479531694
_cell_formula_units_Z                   1
loop_
  _symmetry_equiv_pos_site_id
  _symmetry_equiv_pos_as_xyz
   1  'x, y, z'
 
loop_
  _atom_site_type_symbol
  _atom_site_label
  _atom_site_symmetry_multiplicity
  _atom_site_fract_x
  _atom_site_fract_y
  _atom_site_fract_z
  _atom_site_attached_hydrogens
  _atom_site_B_iso_or_equiv
  _atom_site_occupancy
   Li  Li1  1  0.240784  0.995531  0.250347  0  .  1
   Li  Li2  1  0.745125  0.993609  0.746982  0  .  1
   Li  Li3  1  0.498936  0.995058  0.510301  0  .  1
   Li  Li4  1  0.004248  0.997093  0.002911  0  .  1
   Li  Li5  1  0.369889  0.252446  0.377778  0  .  1
   Li  Li6  1  0.890899  0.216214  0.862569  0  .  1
   Li  Li7  1  0.577821  0.217965  0.176440  0  .  1
   Li  Li8  1  0.130221  0.251011  0.622072  0  .  1
   Li  Li9  1  0.812605  0.375194  0.938281  0  .  1
   Li  Li10  1  0.495955  0.499744  0.494008  0  .  1
   Li  Li11  1  0.046277  0.530272  0.018895  0  .  1
   Li  Li12  1  0.735345  0.534668  0.700690  0  .  1
   Li  Li13  1  0.249580  0.495302  0.257248  0  .  1
   Li  Li14  1  0.877070  0.755117  0.367629  0  .  1
   Li  Li15  1  0.125626  0.753345  0.129114  0  .  1
   Li  Li16  1  0.623355  0.758090  0.620251  0  .  1
   Li  Li17  1  0.382101  0.753862  0.872120  0  .  1
   V  V18  1  0.501745  0.999521  0.000726  0  .  1
   V  V19  1  0.250844  0.000940  0.748921  0  .  1
   V  V20  1  0.999046  0.005545  0.498148  0  .  1
   V  V21  1  0.749909  0.000989  0.249557  0  .  1
   V  V22  1  0.376522  0.249997  0.874823  0  .  1
   V  V23  1  0.875237  0.248568  0.378297  0  .  1
   V  V24  1  0.121378  0.247850  0.127660  0  .  1
   V  V25  1  0.626339  0.251823  0.625235  0  .  1
   V  V26  1  0.247710  0.498835  0.751671  0  .  1
   V  V27  1  0.999638  0.500976  0.501998  0  .  1
   V  V28  1  0.751973  0.500443  0.249014  0  .  1
   V  V29  1  0.500345  0.500046  0.999651  0  .  1
   V  V30  1  0.875522  0.751275  0.873185  0  .  1
   V  V31  1  0.623575  0.747688  0.124811  0  .  1
   V  V32  1  0.375755  0.749114  0.377050  0  .  1
   V  V33  1  0.126005  0.753477  0.624106  0  .  1
   O  O34  1  0.993024  0.007728  0.247572  0  .  1
   O  O35  1  0.494824  0.003993  0.760164  0  .  1
   O  O36  1  0.753170  0.006676  0.489297  0  .  1
   O  O37  1  0.265396  0.010484  0.990491  0  .  1
   O  O38  1  0.618449  0.246193  0.868849  0  .  1
   O  O39  1  0.117322  0.250292  0.366327  0  .  1
   O  O40  1  0.382211  0.244160  0.634126  0  .  1
   O  O41  1  0.873108  0.242326  0.133710  0  .  1
   O  O42  1  0.137285  0.254199  0.879043  0  .  1
   O  O43  1  0.871342  0.260585  0.618605  0  .  1
   O  O44  1  0.632979  0.259794  0.382575  0  .  1
   O  O45  1  0.372566  0.258676  0.114955  0  .  1
   O  O46  1  0.991562  0.495623  0.262522  0  .  1
   O  O47  1  0.487350  0.492057  0.760568  0  .  1
   O  O48  1  0.251922  0.492484  0.994704  0  .  1
   O  O49  1  0.755981  0.498517  0.491382  0  .  1
   O  O50  1  0.747934  0.505085  0.004431  0  .  1
   O  O51  1  0.247347  0.507747  0.506419  0  .  1
   O  O52  1  0.011576  0.507816  0.744018  0  .  1
   O  O53  1  0.508953  0.506890  0.235963  0  .  1
   O  O54  1  0.364203  0.744807  0.618937  0  .  1
   O  O55  1  0.125947  0.741825  0.387722  0  .  1
   O  O56  1  0.862873  0.742169  0.120309  0  .  1
   O  O57  1  0.627498  0.740039  0.883397  0  .  1
   O  O58  1  0.122639  0.758410  0.865611  0  .  1
   O  O59  1  0.622783  0.757323  0.364381  0  .  1
   O  O60  1  0.386111  0.753366  0.133059  0  .  1
   O  O61  1  0.885244  0.757059  0.630419  0  .  1
   O  O62  1  0.500398  0.990727  0.245857  0  .  1
   O  O63  1  0.006651  0.993464  0.752465  0  .  1
   O  O64  1  0.243461  0.993920  0.510735  0  .  1
   O  O65  1  0.736899  0.988745  0.008420  0  .  1
 
