#\#CIF1.1
##########################################################################
#               Crystallographic Information Format file 
#               Produced by PyCifRW module
# 
#  This is a CIF file.  CIF has been adopted by the International
#  Union of Crystallography as the standard for data archiving and 
#  transmission.
#
#  For information on this file format, follow the CIF links at
#  http://www.iucr.org
##########################################################################

data_Li17(MnAs2)4
_symmetry_space_group_name_H-M          'P 1'
_cell_length_a                          12.1929227477
_cell_length_b                          8.66594971606
_cell_length_c                          6.13803798859
_cell_angle_alpha                       89.9786725646
_cell_angle_beta                        90.0278818813
_cell_angle_gamma                       45.1186488181
_chemical_name_systematic               'Generated by pymatgen'
_symmetry_Int_Tables_number             1
_chemical_formula_structural            Li17(MnAs2)4
_chemical_formula_sum                   'Li17 Mn4 As8'
_cell_volume                            459.553174847
_cell_formula_units_Z                   1
loop_
  _symmetry_equiv_pos_site_id
  _symmetry_equiv_pos_as_xyz
   1  'x, y, z'
 
loop_
  _atom_site_type_symbol
  _atom_site_label
  _atom_site_symmetry_multiplicity
  _atom_site_fract_x
  _atom_site_fract_y
  _atom_site_fract_z
  _atom_site_attached_hydrogens
  _atom_site_B_iso_or_equiv
  _atom_site_occupancy
   Li  Li1  1  0.115057  0.022692  0.003455  0  .  1
   Li  Li2  1  0.115423  0.018106  0.502716  0  .  1
   Li  Li3  1  0.377096  0.996500  0.033234  0  .  1
   Li  Li4  1  0.374410  0.998764  0.472967  0  .  1
   Li  Li5  1  0.126374  0.487012  0.011334  0  .  1
   Li  Li6  1  0.380905  0.243280  0.753923  0  .  1
   Li  Li7  1  0.127958  0.752315  0.246413  0  .  1
   Li  Li8  1  0.373682  0.499556  0.996886  0  .  1
   Li  Li9  1  0.624763  0.982850  0.017179  0  .  1
   Li  Li10  1  0.624506  0.985365  0.483174  0  .  1
   Li  Li11  1  0.374420  0.499147  0.502506  0  .  1
   Li  Li12  1  0.618679  0.252732  0.243487  0  .  1
   Li  Li13  1  0.369504  0.755812  0.756423  0  .  1
   Li  Li14  1  0.874291  0.018715  0.979372  0  .  1
   Li  Li15  1  0.874592  0.014890  0.515884  0  .  1
   Li  Li16  1  0.633474  0.499914  0.998573  0  .  1
   Li  Li17  1  0.872296  0.761956  0.753685  0  .  1
   Mn  Mn18  1  0.126375  0.489318  0.489528  0  .  1
   Mn  Mn19  1  0.629235  0.501199  0.500655  0  .  1
   Mn  Mn20  1  0.875077  0.493408  0.010353  0  .  1
   Mn  Mn21  1  0.877059  0.493257  0.494484  0  .  1
   As  As22  1  0.126585  0.253169  0.749559  0  .  1
   As  As23  1  0.128288  0.735456  0.746469  0  .  1
   As  As24  1  0.372761  0.261178  0.251557  0  .  1
   As  As25  1  0.378415  0.734746  0.253080  0  .  1
   As  As26  1  0.620568  0.250596  0.746564  0  .  1
   As  As27  1  0.872710  0.248030  0.251574  0  .  1
   As  As28  1  0.625374  0.750378  0.748349  0  .  1
   As  As29  1  0.877746  0.751262  0.248677  0  .  1
 
