#\#CIF1.1
##########################################################################
#               Crystallographic Information Format file 
#               Produced by PyCifRW module
# 
#  This is a CIF file.  CIF has been adopted by the International
#  Union of Crystallography as the standard for data archiving and 
#  transmission.
#
#  For information on this file format, follow the CIF links at
#  http://www.iucr.org
##########################################################################

data_Li19(Mn3As4)3
_symmetry_space_group_name_H-M          'P 1'
_cell_length_a                          4.23203690415
_cell_length_b                          4.22963218986
_cell_length_c                          36.9771449
_cell_angle_alpha                       90.0
_cell_angle_beta                        90.0
_cell_angle_gamma                       90.0116385937
_chemical_name_systematic               'Generated by pymatgen'
_symmetry_Int_Tables_number             1
_chemical_formula_structural            Li19(Mn3As4)3
_chemical_formula_sum                   'Li19 Mn9 As12'
_cell_volume                            661.889383163
_cell_formula_units_Z                   1
loop_
  _symmetry_equiv_pos_site_id
  _symmetry_equiv_pos_as_xyz
   1  'x, y, z'
 
loop_
  _atom_site_type_symbol
  _atom_site_label
  _atom_site_symmetry_multiplicity
  _atom_site_fract_x
  _atom_site_fract_y
  _atom_site_fract_z
  _atom_site_attached_hydrogens
  _atom_site_B_iso_or_equiv
  _atom_site_occupancy
   Li  Li1  1  0.250000  0.250000  0.082266  0  .  1
   Li  Li2  1  0.250000  0.250000  0.254688  0  .  1
   Li  Li3  1  0.250000  0.250000  0.415530  0  .  1
   Li  Li4  1  0.250000  0.250000  0.589939  0  .  1
   Li  Li5  1  0.250000  0.250000  0.751232  0  .  1
   Li  Li6  1  0.250000  0.250000  0.920868  0  .  1
   Li  Li7  1  0.250000  0.250000  0.662335  0  .  1
   Li  Li8  1  0.750000  0.750000  0.662330  0  .  1
   Li  Li9  1  0.750000  0.750000  0.829668  0  .  1
   Li  Li10  1  0.750000  0.750000  0.082179  0  .  1
   Li  Li11  1  0.750000  0.750000  0.415557  0  .  1
   Li  Li12  1  0.750000  0.750000  0.254696  0  .  1
   Li  Li13  1  0.750000  0.750000  0.589982  0  .  1
   Li  Li14  1  0.750000  0.750000  0.752622  0  .  1
   Li  Li15  1  0.750000  0.750000  0.920813  0  .  1
   Li  Li16  1  0.750000  0.250000  0.209588  0  .  1
   Li  Li17  1  0.750000  0.250000  0.546765  0  .  1
   Li  Li18  1  0.750000  0.250000  0.706049  0  .  1
   Li  Li19  1  0.750000  0.250000  0.874588  0  .  1
   Mn  Mn20  1  0.250000  0.250000  0.000235  0  .  1
   Mn  Mn21  1  0.250000  0.250000  0.163972  0  .  1
   Mn  Mn22  1  0.250000  0.250000  0.333122  0  .  1
   Mn  Mn23  1  0.250000  0.250000  0.497049  0  .  1
   Mn  Mn24  1  0.250000  0.250000  0.830129  0  .  1
   Mn  Mn25  1  0.750000  0.750000  0.000170  0  .  1
   Mn  Mn26  1  0.750000  0.750000  0.163942  0  .  1
   Mn  Mn27  1  0.750000  0.750000  0.333128  0  .  1
   Mn  Mn28  1  0.750000  0.750000  0.497048  0  .  1
   As  As29  1  0.250000  0.750000  0.037806  0  .  1
   As  As30  1  0.250000  0.750000  0.205779  0  .  1
   As  As31  1  0.250000  0.750000  0.371103  0  .  1
   As  As32  1  0.250000  0.750000  0.536088  0  .  1
   As  As33  1  0.250000  0.750000  0.708755  0  .  1
   As  As34  1  0.250000  0.750000  0.874579  0  .  1
   As  As35  1  0.750000  0.250000  0.126315  0  .  1
   As  As36  1  0.750000  0.250000  0.294296  0  .  1
   As  As37  1  0.750000  0.250000  0.459936  0  .  1
   As  As38  1  0.750000  0.250000  0.622858  0  .  1
   As  As39  1  0.750000  0.250000  0.793146  0  .  1
   As  As40  1  0.750000  0.250000  0.962182  0  .  1
 
