#\#CIF1.1
##########################################################################
#               Crystallographic Information Format file 
#               Produced by PyCifRW module
# 
#  This is a CIF file.  CIF has been adopted by the International
#  Union of Crystallography as the standard for data archiving and 
#  transmission.
#
#  For information on this file format, follow the CIF links at
#  http://www.iucr.org
##########################################################################

data_Li2(NiO2)21
_symmetry_space_group_name_H-M          'P 1'
_cell_length_a                          15.2688504772
_cell_length_b                          40.0281685007
_cell_length_c                          19.370710203
_cell_angle_alpha                       10.6590875452
_cell_angle_beta                        21.3379746013
_cell_angle_gamma                       28.1084509821
_chemical_name_systematic               'Generated by pymatgen'
_symmetry_Int_Tables_number             1
_chemical_formula_structural            Li2(NiO2)21
_chemical_formula_sum                   'Li2 Ni21 O42'
_cell_volume                            692.298028933
_cell_formula_units_Z                   1
loop_
  _symmetry_equiv_pos_site_id
  _symmetry_equiv_pos_as_xyz
   1  'x, y, z'
 
loop_
  _atom_site_type_symbol
  _atom_site_label
  _atom_site_symmetry_multiplicity
  _atom_site_fract_x
  _atom_site_fract_y
  _atom_site_fract_z
  _atom_site_attached_hydrogens
  _atom_site_B_iso_or_equiv
  _atom_site_occupancy
   Li  Li1  1  0.476413  0.571288  0.000100  0  .  1
   Li  Li2  1  0.380729  0.857284  0.999900  0  .  1
   Ni  Ni3  1  0.307246  0.070227  0.503006  0  .  1
   Ni  Ni4  1  0.263432  0.213606  0.499952  0  .  1
   Ni  Ni5  1  0.643636  0.071797  0.500205  0  .  1
   Ni  Ni6  1  0.213507  0.356775  0.499795  0  .  1
   Ni  Ni7  1  0.593711  0.214966  0.500048  0  .  1
   Ni  Ni8  1  0.976423  0.071466  0.499839  0  .  1
   Ni  Ni9  1  0.168317  0.501461  0.496975  0  .  1
   Ni  Ni10  1  0.549897  0.358345  0.496994  0  .  1
   Ni  Ni11  1  0.928571  0.214286  0.500000  0  .  1
   Ni  Ni12  1  0.118390  0.642612  0.499066  0  .  1
   Ni  Ni13  1  0.497766  0.499886  0.502121  0  .  1
   Ni  Ni14  1  0.880719  0.357106  0.500161  0  .  1
   Ni  Ni15  1  0.072687  0.787100  0.497370  0  .  1
   Ni  Ni16  1  0.455044  0.644499  0.495869  0  .  1
   Ni  Ni17  1  0.833071  0.499574  0.501573  0  .  1
   Ni  Ni18  1  0.024072  0.928997  0.498427  0  .  1
   Ni  Ni19  1  0.402099  0.784072  0.504131  0  .  1
   Ni  Ni20  1  0.784456  0.641471  0.502630  0  .  1
   Ni  Ni21  1  0.359377  0.928685  0.497879  0  .  1
   Ni  Ni22  1  0.738753  0.785959  0.500934  0  .  1
   Ni  Ni23  1  0.688826  0.927110  0.503025  0  .  1
   O  O24  1  0.311358  0.111206  0.219092  0  .  1
   O  O25  1  0.248257  0.250876  0.235996  0  .  1
   O  O26  1  0.608776  0.089770  0.289489  0  .  1
   O  O27  1  0.326932  0.032034  0.766655  0  .  1
   O  O28  1  0.216299  0.397104  0.218595  0  .  1
   O  O29  1  0.583942  0.253331  0.230277  0  .  1
   O  O30  1  0.966751  0.111044  0.227015  0  .  1
   O  O31  1  0.273201  0.175241  0.769723  0  .  1
   O  O32  1  0.640844  0.031467  0.781405  0  .  1
   O  O33  1  0.156227  0.536521  0.233826  0  .  1
   O  O34  1  0.530211  0.396537  0.233345  0  .  1
   O  O35  1  0.913296  0.260833  0.218588  0  .  1
   O  O36  1  0.248367  0.338802  0.710511  0  .  1
   O  O37  1  0.608886  0.177696  0.764004  0  .  1
   O  O38  1  0.103342  0.682615  0.231792  0  .  1
   O  O39  1  0.983317  0.031600  0.774983  0  .  1
   O  O40  1  0.488464  0.538750  0.232261  0  .  1
   O  O41  1  0.873826  0.396971  0.225017  0  .  1
   O  O42  1  0.177876  0.460574  0.770636  0  .  1
   O  O43  1  0.545785  0.317366  0.780908  0  .  1
   O  O44  1  0.062789  0.822671  0.232041  0  .  1
   O  O45  1  0.943846  0.167739  0.781412  0  .  1
   O  O46  1  0.433586  0.682116  0.234477  0  .  1
   O  O47  1  0.818568  0.546711  0.217865  0  .  1
   O  O48  1  0.153908  0.624773  0.709326  0  .  1
   O  O49  1  0.515903  0.463558  0.762269  0  .  1
   O  O50  1  0.008089  0.968348  0.231680  0  .  1
   O  O51  1  0.890391  0.317528  0.772985  0  .  1
   O  O52  1  0.393749  0.824610  0.231382  0  .  1
   O  O53  1  0.777639  0.681767  0.228080  0  .  1
   O  O54  1  0.079504  0.746804  0.771920  0  .  1
   O  O55  1  0.463394  0.603961  0.768618  0  .  1
   O  O56  1  0.849053  0.460224  0.768320  0  .  1
   O  O57  1  0.341240  0.965014  0.237731  0  .  1
   O  O58  1  0.703235  0.803798  0.290674  0  .  1
   O  O59  1  0.038575  0.881860  0.782135  0  .  1
   O  O60  1  0.423557  0.746455  0.765523  0  .  1
   O  O61  1  0.794354  0.605900  0.767959  0  .  1
   O  O62  1  0.679267  0.967997  0.229364  0  .  1
   O  O63  1  0.368679  0.889821  0.767739  0  .  1
   O  O64  1  0.753801  0.745956  0.768208  0  .  1
   O  O65  1  0.700916  0.892050  0.766174  0  .  1
 
