#\#CIF1.1
##########################################################################
#               Crystallographic Information Format file 
#               Produced by PyCifRW module
# 
#  This is a CIF file.  CIF has been adopted by the International
#  Union of Crystallography as the standard for data archiving and 
#  transmission.
#
#  For information on this file format, follow the CIF links at
#  http://www.iucr.org
##########################################################################

data_Li2(VS2)3
_symmetry_space_group_name_H-M          'P 1'
_cell_length_a                          5.59586052725
_cell_length_b                          5.59621085205
_cell_length_c                          14.8958778019
_cell_angle_alpha                       90.0030127347
_cell_angle_beta                        89.993974154
_cell_angle_gamma                       119.997935129
_chemical_name_systematic               'Generated by pymatgen'
_symmetry_Int_Tables_number             1
_chemical_formula_structural            Li2(VS2)3
_chemical_formula_sum                   'Li4 V6 S12'
_cell_volume                            403.98637392
_cell_formula_units_Z                   2
loop_
  _symmetry_equiv_pos_site_id
  _symmetry_equiv_pos_as_xyz
   1  'x, y, z'
 
loop_
  _atom_site_type_symbol
  _atom_site_label
  _atom_site_symmetry_multiplicity
  _atom_site_fract_x
  _atom_site_fract_y
  _atom_site_fract_z
  _atom_site_attached_hydrogens
  _atom_site_B_iso_or_equiv
  _atom_site_occupancy
   Li  Li1  1  0.333299  0.666698  0.249981  0  .  1
   Li  Li2  1  0.333301  0.666698  0.750019  0  .  1
   Li  Li3  1  0.666603  0.333302  0.750019  0  .  1
   Li  Li4  1  0.666601  0.333302  0.249981  0  .  1
   V  V5  1  0.000046  0.674768  -0.000009  0  .  1
   V  V6  1  -0.000116  0.325164  0.500001  0  .  1
   V  V7  1  0.325279  0.325232  -0.000009  0  .  1
   V  V8  1  0.325227  0.000000  0.500000  0  .  1
   V  V9  1  0.674720  0.674836  0.500001  0  .  1
   V  V10  1  0.674693  1.000000  -0.000008  0  .  1
   S  S11  1  0.333263  0.666623  0.095941  0  .  1
   S  S12  1  0.333288  0.666692  0.595994  0  .  1
   S  S13  1  0.999955  1.000000  0.099805  0  .  1
   S  S14  1  0.000092  1.000000  0.400109  0  .  1
   S  S15  1  0.000040  1.000000  0.599896  0  .  1
   S  S16  1  0.333352  0.666695  0.404005  0  .  1
   S  S17  1  0.000009  0.000000  0.900203  0  .  1
   S  S18  1  0.333333  0.666612  0.904063  0  .  1
   S  S19  1  0.666639  0.333377  0.095941  0  .  1
   S  S20  1  0.666596  0.333308  0.595994  0  .  1
   S  S21  1  0.666720  0.333388  0.904063  0  .  1
   S  S22  1  0.666657  0.333305  0.404005  0  .  1
 
