#\#CIF1.1
##########################################################################
#               Crystallographic Information Format file 
#               Produced by PyCifRW module
# 
#  This is a CIF file.  CIF has been adopted by the International
#  Union of Crystallography as the standard for data archiving and 
#  transmission.
#
#  For information on this file format, follow the CIF links at
#  http://www.iucr.org
##########################################################################

data_Li2(NiO2)5
_symmetry_space_group_name_H-M          'P 1'
_cell_length_a                          7.71746245161
_cell_length_b                          4.95758726182
_cell_length_c                          5.87996917164
_cell_angle_alpha                       65.4940772696
_cell_angle_beta                        115.592512486
_cell_angle_gamma                       90.5020420399
_chemical_name_systematic               'Generated by pymatgen'
_symmetry_Int_Tables_number             1
_chemical_formula_structural            Li2(NiO2)5
_chemical_formula_sum                   'Li2 Ni5 O10'
_cell_volume                            180.594242453
_cell_formula_units_Z                   1
loop_
  _symmetry_equiv_pos_site_id
  _symmetry_equiv_pos_as_xyz
   1  'x, y, z'
 
loop_
  _atom_site_type_symbol
  _atom_site_label
  _atom_site_symmetry_multiplicity
  _atom_site_fract_x
  _atom_site_fract_y
  _atom_site_fract_z
  _atom_site_attached_hydrogens
  _atom_site_B_iso_or_equiv
  _atom_site_occupancy
   Li  Li1  1  0.277648  0.256077  0.832152  0  .  1
   Li  Li2  1  0.722349  0.743934  0.167879  0  .  1
   Ni  Ni3  1  0.999969  0.000004  0.000009  0  .  1
   Ni  Ni4  1  0.199126  0.397167  0.203440  0  .  1
   Ni  Ni5  1  0.601738  0.199288  0.597292  0  .  1
   Ni  Ni6  1  0.398281  0.800646  0.402680  0  .  1
   Ni  Ni7  1  0.800859  0.602830  0.796566  0  .  1
   O  O8  1  0.438151  0.195901  0.246849  0  .  1
   O  O9  1  0.237769  0.835843  0.042670  0  .  1
   O  O10  1  0.045089  0.394360  0.858079  0  .  1
   O  O11  1  0.365950  0.393225  0.551804  0  .  1
   O  O12  1  0.834296  0.037584  0.636504  0  .  1
   O  O13  1  0.165772  0.962575  0.363493  0  .  1
   O  O14  1  0.634040  0.606664  0.448172  0  .  1
   O  O15  1  0.954792  0.605772  0.141926  0  .  1
   O  O16  1  0.762139  0.164072  0.957312  0  .  1
   O  O17  1  0.561968  0.803933  0.753110  0  .  1
 
