#\#CIF1.1
##########################################################################
#               Crystallographic Information Format file 
#               Produced by PyCifRW module
# 
#  This is a CIF file.  CIF has been adopted by the International
#  Union of Crystallography as the standard for data archiving and 
#  transmission.
#
#  For information on this file format, follow the CIF links at
#  http://www.iucr.org
##########################################################################

data_Li2(NiO2)3
_symmetry_space_group_name_H-M          'P 1'
_cell_length_a                          5.12169149794
_cell_length_b                          4.96731056028
_cell_length_c                          4.97210251428
_cell_angle_alpha                       59.9680770271
_cell_angle_beta                        70.8678485684
_cell_angle_gamma                       80.558984301
_chemical_name_systematic               'Generated by pymatgen'
_symmetry_Int_Tables_number             1
_chemical_formula_structural            Li2(NiO2)3
_chemical_formula_sum                   'Li2 Ni3 O6'
_cell_volume                            103.46405731
_cell_formula_units_Z                   1
loop_
  _symmetry_equiv_pos_site_id
  _symmetry_equiv_pos_as_xyz
   1  'x, y, z'
 
loop_
  _atom_site_type_symbol
  _atom_site_label
  _atom_site_symmetry_multiplicity
  _atom_site_fract_x
  _atom_site_fract_y
  _atom_site_fract_z
  _atom_site_attached_hydrogens
  _atom_site_B_iso_or_equiv
  _atom_site_occupancy
   Li  Li1  1  0.000000  0.658482  0.670759  0  .  1
   Li  Li2  1  0.000000  0.341518  0.329241  0  .  1
   Ni  Ni3  1  0.500000  0.329939  0.835031  0  .  1
   Ni  Ni4  1  0.500000  0.000000  0.500000  0  .  1
   Ni  Ni5  1  0.500000  0.670061  0.164969  0  .  1
   O  O6  1  0.703290  0.000000  0.755128  0  .  1
   O  O7  1  0.715372  0.644109  0.447915  0  .  1
   O  O8  1  0.715372  0.355891  0.092024  0  .  1
   O  O9  1  0.284628  0.644109  0.907976  0  .  1
   O  O10  1  0.284628  0.355891  0.552085  0  .  1
   O  O11  1  0.296710  1.000000  0.244872  0  .  1
 
