#\#CIF1.1
##########################################################################
#               Crystallographic Information Format file 
#               Produced by PyCifRW module
# 
#  This is a CIF file.  CIF has been adopted by the International
#  Union of Crystallography as the standard for data archiving and 
#  transmission.
#
#  For information on this file format, follow the CIF links at
#  http://www.iucr.org
##########################################################################

data_Li2(FeO2)5
_symmetry_space_group_name_H-M          'P 1'
_cell_length_a                          5.1587268842
_cell_length_b                          5.14108375237
_cell_length_c                          7.86355900346
_cell_angle_alpha                       109.150040859
_cell_angle_beta                        100.737826644
_cell_angle_gamma                       101.347054322
_chemical_name_systematic               'Generated by pymatgen'
_symmetry_Int_Tables_number             1
_chemical_formula_structural            Li2(FeO2)5
_chemical_formula_sum                   'Li2 Fe5 O10'
_cell_volume                            185.941377996
_cell_formula_units_Z                   1
loop_
  _symmetry_equiv_pos_site_id
  _symmetry_equiv_pos_as_xyz
   1  'x, y, z'
 
loop_
  _atom_site_type_symbol
  _atom_site_label
  _atom_site_symmetry_multiplicity
  _atom_site_fract_x
  _atom_site_fract_y
  _atom_site_fract_z
  _atom_site_attached_hydrogens
  _atom_site_B_iso_or_equiv
  _atom_site_occupancy
   Li  Li1  1  0.235134  0.934163  0.425450  0  .  1
   Li  Li2  1  0.764866  0.065837  0.574550  0  .  1
   Fe  Fe3  1  0.114455  0.698182  0.689638  0  .  1
   Fe  Fe4  1  0.000000  0.500000  0.000000  0  .  1
   Fe  Fe5  1  0.687997  0.876639  0.886906  0  .  1
   Fe  Fe6  1  0.312003  0.123361  0.113094  0  .  1
   Fe  Fe7  1  0.885545  0.301818  0.310362  0  .  1
   O  O8  1  0.034103  0.102257  0.864246  0  .  1
   O  O9  1  0.088623  0.290450  0.518860  0  .  1
   O  O10  1  0.324813  0.718811  0.930002  0  .  1
   O  O11  1  0.193742  0.472693  0.226869  0  .  1
   O  O12  1  0.447004  0.890064  0.671457  0  .  1
   O  O13  1  0.552996  0.109936  0.328543  0  .  1
   O  O14  1  0.806258  0.527307  0.773131  0  .  1
   O  O15  1  0.675187  0.281189  0.069998  0  .  1
   O  O16  1  0.911378  0.709550  0.481140  0  .  1
   O  O17  1  0.965897  0.897743  0.135754  0  .  1
 
