#\#CIF1.1
##########################################################################
#               Crystallographic Information Format file 
#               Produced by PyCifRW module
# 
#  This is a CIF file.  CIF has been adopted by the International
#  Union of Crystallography as the standard for data archiving and 
#  transmission.
#
#  For information on this file format, follow the CIF links at
#  http://www.iucr.org
##########################################################################

data_Li20Co21O40
_symmetry_space_group_name_H-M          'P 1'
_cell_length_a                          9.95370811011
_cell_length_b                          8.12646328
_cell_length_c                          9.95370811011
_cell_angle_alpha                       114.092618704
_cell_angle_beta                        80.4076127816
_cell_angle_gamma                       114.092618704
_chemical_name_systematic               'Generated by pymatgen'
_symmetry_Int_Tables_number             1
_chemical_formula_structural            Li20Co21O40
_chemical_formula_sum                   'Li20 Co21 O40'
_cell_volume                            670.97325481
_cell_formula_units_Z                   1
loop_
  _symmetry_equiv_pos_site_id
  _symmetry_equiv_pos_as_xyz
   1  'x, y, z'
 
loop_
  _atom_site_type_symbol
  _atom_site_label
  _atom_site_symmetry_multiplicity
  _atom_site_fract_x
  _atom_site_fract_y
  _atom_site_fract_z
  _atom_site_attached_hydrogens
  _atom_site_B_iso_or_equiv
  _atom_site_occupancy
   Li  Li1  1  0.198551  0.296565  0.898730  0  .  1
   Li  Li2  1  0.098730  0.902165  0.701449  0  .  1
   Li  Li3  1  0.010063  0.508807  0.504043  0  .  1
   Li  Li4  1  0.194470  0.790995  0.404791  0  .  1
   Li  Li5  1  0.089937  0.894700  0.195957  0  .  1
   Li  Li6  1  0.395957  0.601257  0.810063  0  .  1
   Li  Li7  1  0.293667  0.707038  0.601623  0  .  1
   Li  Li8  1  0.001270  0.001985  0.998551  0  .  1
   Li  Li9  1  0.346413  0.021815  0.281981  0  .  1
   Li  Li10  1  0.604791  0.913796  0.705530  0  .  1
   Li  Li11  1  0.298377  0.686628  0.093667  0  .  1
   Li  Li12  1  0.704043  0.295237  0.889937  0  .  1
   Li  Li13  1  0.481981  0.560167  0.553587  0  .  1
   Li  Li14  1  0.753587  0.293420  0.418019  0  .  1
   Li  Li15  1  0.495209  0.503475  0.994470  0  .  1
   Li  Li16  1  0.618019  0.424599  0.146413  0  .  1
   Li  Li17  1  0.901449  0.099284  0.801270  0  .  1
   Li  Li18  1  0.801623  0.194585  0.606333  0  .  1
   Li  Li19  1  0.806333  0.711748  0.098377  0  .  1
   Li  Li20  1  0.905530  0.091734  0.295209  0  .  1
   Co  Co21  1  0.199713  0.798811  0.897926  0  .  1
   Co  Co22  1  0.998093  0.999247  0.500894  0  .  1
   Co  Co23  1  0.097926  0.399115  0.700287  0  .  1
   Co  Co24  1  0.101907  0.400260  0.199106  0  .  1
   Co  Co25  1  0.197622  0.298813  0.400345  0  .  1
   Co  Co26  1  0.297640  0.199969  0.600844  0  .  1
   Co  Co27  1  0.399106  0.098846  0.798093  0  .  1
   Co  Co28  1  0.002074  0.500902  0.999713  0  .  1
   Co  Co29  1  0.600345  0.401531  0.702378  0  .  1
   Co  Co30  1  0.400201  0.599823  0.299717  0  .  1
   Co  Co31  1  0.299156  0.197671  0.097640  0  .  1
   Co  Co32  1  0.700894  0.801647  0.901907  0  .  1
   Co  Co33  1  0.499717  -0.000105  0.499799  0  .  1
   Co  Co34  1  0.550000  0.325000  0.350000  0  .  1
   Co  Co35  1  0.800844  0.700875  0.602360  0  .  1
   Co  Co36  1  0.900287  0.601172  0.802074  0  .  1
   Co  Co37  1  0.699799  0.799905  0.400283  0  .  1
   Co  Co38  1  0.600283  0.900378  0.200201  0  .  1
   Co  Co39  1  0.499655  0.998809  0.997622  0  .  1
   Co  Co40  1  0.802360  0.201485  0.099156  0  .  1
   Co  Co41  1  0.902378  0.600846  0.299655  0  .  1
   O  O42  1  0.005098  0.735541  0.987707  0  .  1
   O  O43  1  0.094902  0.642736  0.712293  0  .  1
   O  O44  1  0.187708  0.552166  0.894902  0  .  1
   O  O45  1  0.101437  0.156033  0.688126  0  .  1
   O  O46  1  0.211874  0.045404  0.901437  0  .  1
   O  O47  1  0.006666  0.245540  0.506843  0  .  1
   O  O48  1  0.486207  0.229403  0.991796  0  .  1
   O  O49  1  0.393157  0.861127  0.806666  0  .  1
   O  O50  1  0.093334  0.632031  0.193157  0  .  1
   O  O51  1  0.284102  0.430924  0.598243  0  .  1
   O  O52  1  0.191796  0.062393  0.413793  0  .  1
   O  O53  1  0.205417  0.535794  0.387066  0  .  1
   O  O54  1  0.312271  0.969279  0.602745  0  .  1
   O  O55  1  0.402498  0.334871  0.787704  0  .  1
   O  O56  1  0.112296  0.167627  0.202498  0  .  1
   O  O57  1  0.387600  0.351386  0.293504  0  .  1
   O  O58  1  0.587066  0.151273  0.694583  0  .  1
   O  O59  1  0.697502  0.044669  0.912296  0  .  1
   O  O60  1  0.297255  0.442992  0.112271  0  .  1
   O  O61  1  0.493504  0.242118  0.512400  0  .  1
   O  O62  1  0.301757  0.953179  0.084102  0  .  1
   O  O63  1  0.412149  0.845421  0.303937  0  .  1
   O  O64  1  0.503937  0.758516  0.487851  0  .  1
   O  O65  1  0.706843  0.561303  0.893334  0  .  1
   O  O66  1  0.613793  0.651400  0.708204  0  .  1
   O  O67  1  0.687851  0.029335  0.396063  0  .  1
   O  O68  1  0.596063  0.666728  0.212149  0  .  1
   O  O69  1  0.888126  0.832092  0.798563  0  .  1
   O  O70  1  0.798243  0.467319  0.615898  0  .  1
   O  O71  1  0.912292  0.369556  0.805098  0  .  1
   O  O72  1  0.712400  0.570283  0.406496  0  .  1
   O  O73  1  0.802745  0.933467  0.587729  0  .  1
   O  O74  1  0.606496  0.136214  0.187600  0  .  1
   O  O75  1  0.512934  0.769623  0.005417  0  .  1
   O  O76  1  0.987704  0.752834  0.497502  0  .  1
   O  O77  1  0.787729  0.954263  0.097255  0  .  1
   O  O78  1  0.894583  0.843310  0.312934  0  .  1
   O  O79  1  0.908204  0.356804  0.286207  0  .  1
   O  O80  1  0.815898  0.448578  0.101757  0  .  1
   O  O81  1  0.998563  0.266472  0.011874  0  .  1
 
