#\#CIF1.1
##########################################################################
#               Crystallographic Information Format file 
#               Produced by PyCifRW module
# 
#  This is a CIF file.  CIF has been adopted by the International
#  Union of Crystallography as the standard for data archiving and 
#  transmission.
#
#  For information on this file format, follow the CIF links at
#  http://www.iucr.org
##########################################################################

data_Li21(Co4O9)2
_symmetry_space_group_name_H-M          'P 1'
_cell_length_a                          7.69332268984
_cell_length_b                          7.82369760899
_cell_length_c                          9.73403266824
_cell_angle_alpha                       87.706989455
_cell_angle_beta                        77.5307325225
_cell_angle_gamma                       119.650097665
_chemical_name_systematic               'Generated by pymatgen'
_symmetry_Int_Tables_number             1
_chemical_formula_structural            Li21(Co4O9)2
_chemical_formula_sum                   'Li21 Co8 O18'
_cell_volume                            489.669122836
_cell_formula_units_Z                   1
loop_
  _symmetry_equiv_pos_site_id
  _symmetry_equiv_pos_as_xyz
   1  'x, y, z'
 
loop_
  _atom_site_type_symbol
  _atom_site_label
  _atom_site_symmetry_multiplicity
  _atom_site_fract_x
  _atom_site_fract_y
  _atom_site_fract_z
  _atom_site_attached_hydrogens
  _atom_site_B_iso_or_equiv
  _atom_site_occupancy
   Li  Li1  1  0.192047  0.161973  0.132202  0  .  1
   Li  Li2  1  0.509137  0.614773  0.095340  0  .  1
   Li  Li3  1  0.338011  0.919640  0.133705  0  .  1
   Li  Li4  1  0.595874  0.335276  0.158002  0  .  1
   Li  Li5  1  0.044138  0.869171  0.345997  0  .  1
   Li  Li6  1  0.869113  0.713768  0.151692  0  .  1
   Li  Li7  1  0.152013  0.623426  0.392975  0  .  1
   Li  Li8  1  0.494002  0.077062  0.380125  0  .  1
   Li  Li9  1  0.767779  0.466683  0.376952  0  .  1
   Li  Li10  1  0.863914  0.186194  0.384680  0  .  1
   Li  Li11  1  0.154034  0.821287  0.604887  0  .  1
   Li  Li12  1  0.244061  0.538699  0.622533  0  .  1
   Li  Li13  1  0.518604  0.931218  0.623456  0  .  1
   Li  Li14  1  0.849006  0.378666  0.610091  0  .  1
   Li  Li15  1  0.970526  0.124466  0.630759  0  .  1
   Li  Li16  1  0.159742  0.314826  0.853390  0  .  1
   Li  Li17  1  0.411231  0.677612  0.846643  0  .  1
   Li  Li18  1  0.609233  0.115460  0.888633  0  .  1
   Li  Li19  1  0.842786  0.053871  0.855311  0  .  1
   Li  Li20  1  0.479863  0.385074  0.905232  0  .  1
   Li  Li21  1  0.815733  0.786163  0.843657  0  .  1
   Co  Co22  1  0.698631  0.668334  0.623631  0  .  1
   Co  Co23  1  0.590798  0.752723  0.369388  0  .  1
   Co  Co24  1  0.414987  0.235764  0.634136  0  .  1
   Co  Co25  1  0.236361  0.964916  0.852936  0  .  1
   Co  Co26  1  0.057022  0.475505  0.118253  0  .  1
   Co  Co27  1  0.753290  0.036763  0.144298  0  .  1
   Co  Co28  1  0.292223  0.311127  0.374016  0  .  1
   Co  Co29  1  0.939497  0.531276  0.878145  0  .  1
   O  O30  1  0.615294  0.904649  0.019907  0  .  1
   O  O31  1  0.072965  0.680168  0.223715  0  .  1
   O  O32  1  0.315532  0.115187  0.285519  0  .  1
   O  O33  1  0.773952  0.258711  0.224787  0  .  1
   O  O34  1  0.582145  0.532519  0.288743  0  .  1
   O  O35  1  0.880415  0.957817  0.263567  0  .  1
   O  O36  1  0.085776  0.346614  0.475049  0  .  1
   O  O37  1  0.390030  0.795005  0.468821  0  .  1
   O  O38  1  0.624790  0.206377  0.529618  0  .  1
   O  O39  1  0.927294  0.661812  0.525154  0  .  1
   O  O40  1  0.088886  0.052953  0.766690  0  .  1
   O  O41  1  0.416459  0.471017  0.712377  0  .  1
   O  O42  1  0.217947  0.733603  0.773880  0  .  1
   O  O43  1  0.695869  0.880836  0.714780  0  .  1
   O  O44  1  0.909114  0.312418  0.791568  0  .  1
   O  O45  1  0.367895  0.106417  0.981697  0  .  1
   O  O46  1  0.271639  0.435856  0.018871  0  .  1
   O  O47  1  0.732632  0.562193  0.984928  0  .  1
 
