#\#CIF1.1
##########################################################################
#               Crystallographic Information Format file 
#               Produced by PyCifRW module
# 
#  This is a CIF file.  CIF has been adopted by the International
#  Union of Crystallography as the standard for data archiving and 
#  transmission.
#
#  For information on this file format, follow the CIF links at
#  http://www.iucr.org
##########################################################################

data_Li21(CoO4)4
_symmetry_space_group_name_H-M          'P 1'
_cell_length_a                          9.0890526467
_cell_length_b                          9.43185011387
_cell_length_c                          9.37424577
_cell_angle_alpha                       90.0
_cell_angle_beta                        90.0
_cell_angle_gamma                       90.1936659368
_chemical_name_systematic               'Generated by pymatgen'
_symmetry_Int_Tables_number             1
_chemical_formula_structural            Li21(CoO4)4
_chemical_formula_sum                   'Li42 Co8 O32'
_cell_volume                            803.617460207
_cell_formula_units_Z                   2
loop_
  _symmetry_equiv_pos_site_id
  _symmetry_equiv_pos_as_xyz
   1  'x, y, z'
 
loop_
  _atom_site_type_symbol
  _atom_site_label
  _atom_site_symmetry_multiplicity
  _atom_site_fract_x
  _atom_site_fract_y
  _atom_site_fract_z
  _atom_site_attached_hydrogens
  _atom_site_B_iso_or_equiv
  _atom_site_occupancy
   Li  Li1  1  0.888140  0.635942  0.864065  0  .  1
   Li  Li2  1  0.882737  0.864943  0.641216  0  .  1
   Li  Li3  1  0.888140  0.135942  0.635935  0  .  1
   Li  Li4  1  0.882737  0.364943  0.858784  0  .  1
   Li  Li5  1  0.879279  0.840146  0.108188  0  .  1
   Li  Li6  1  0.879279  0.340146  0.391812  0  .  1
   Li  Li7  1  0.847420  0.898184  0.377871  0  .  1
   Li  Li8  1  0.847420  0.398184  0.122129  0  .  1
   Li  Li9  1  0.672598  0.885119  0.886891  0  .  1
   Li  Li10  1  0.672598  0.385119  0.613109  0  .  1
   Li  Li11  1  0.655664  0.607433  0.131887  0  .  1
   Li  Li12  1  0.633089  0.880235  0.158613  0  .  1
   Li  Li13  1  0.655664  0.107433  0.368113  0  .  1
   Li  Li14  1  0.633089  0.380235  0.341387  0  .  1
   Li  Li15  1  0.612496  0.860968  0.616968  0  .  1
   Li  Li16  1  0.612496  0.360968  0.883032  0  .  1
   Li  Li17  1  0.648449  0.622271  0.604440  0  .  1
   Li  Li18  1  0.648449  0.122271  0.895560  0  .  1
   Li  Li19  1  0.604299  0.647388  0.369394  0  .  1
   Li  Li20  1  0.604299  0.147388  0.130606  0  .  1
   Li  Li21  1  0.393984  0.851024  0.864040  0  .  1
   Li  Li22  1  0.393984  0.351024  0.635960  0  .  1
   Li  Li23  1  0.386358  0.885040  0.104946  0  .  1
   Li  Li24  1  0.386358  0.385040  0.395054  0  .  1
   Li  Li25  1  0.371135  0.620437  0.646922  0  .  1
   Li  Li26  1  0.380427  0.638430  0.117029  0  .  1
   Li  Li27  1  0.371135  0.120437  0.853078  0  .  1
   Li  Li28  1  0.380427  0.138430  0.382971  0  .  1
   Li  Li29  1  0.337433  0.886751  0.620681  0  .  1
   Li  Li30  1  0.337433  0.386751  0.879319  0  .  1
   Li  Li31  1  0.331626  0.625294  0.381247  0  .  1
   Li  Li32  1  0.331626  0.125294  0.118753  0  .  1
   Li  Li33  1  0.161261  0.604911  0.885107  0  .  1
   Li  Li34  1  0.134936  0.892543  0.121364  0  .  1
   Li  Li35  1  0.161261  0.104911  0.614893  0  .  1
   Li  Li36  1  0.134936  0.392543  0.378636  0  .  1
   Li  Li37  1  0.119733  0.862737  0.377994  0  .  1
   Li  Li38  1  0.116099  0.625869  0.145045  0  .  1
   Li  Li39  1  0.119733  0.362737  0.122006  0  .  1
   Li  Li40  1  0.116099  0.125869  0.354955  0  .  1
   Li  Li41  1  0.101173  0.652141  0.615021  0  .  1
   Li  Li42  1  0.101173  0.152141  0.884979  0  .  1
   Co  Co43  1  0.888638  0.621473  0.369519  0  .  1
   Co  Co44  1  0.888638  0.121473  0.130481  0  .  1
   Co  Co45  1  0.606484  0.624558  0.868809  0  .  1
   Co  Co46  1  0.606484  0.124558  0.631191  0  .  1
   Co  Co47  1  0.397588  0.878948  0.368475  0  .  1
   Co  Co48  1  0.397588  0.378948  0.131525  0  .  1
   Co  Co49  1  0.110849  0.875715  0.853340  0  .  1
   Co  Co50  1  0.110849  0.375715  0.646660  0  .  1
   O  O51  1  0.990096  0.988383  0.239229  0  .  1
   O  O52  1  0.990096  0.488383  0.260771  0  .  1
   O  O53  1  0.974007  0.756104  0.483471  0  .  1
   O  O54  1  0.974007  0.256104  0.016529  0  .  1
   O  O55  1  0.744587  0.504427  0.464922  0  .  1
   O  O56  1  0.758086  0.742232  0.254311  0  .  1
   O  O57  1  0.744587  0.004427  0.035078  0  .  1
   O  O58  1  0.758086  0.242232  0.245689  0  .  1
   O  O59  1  0.741346  0.005679  0.531505  0  .  1
   O  O60  1  0.741346  0.505679  0.968495  0  .  1
   O  O61  1  0.729755  0.742620  0.752589  0  .  1
   O  O62  1  0.729755  0.242620  0.747411  0  .  1
   O  O63  1  0.527624  0.753705  0.001991  0  .  1
   O  O64  1  0.527624  0.253705  0.498009  0  .  1
   O  O65  1  0.517024  0.994940  0.755071  0  .  1
   O  O66  1  0.517024  0.494940  0.744929  0  .  1
   O  O67  1  0.491060  0.515156  0.260241  0  .  1
   O  O68  1  0.491060  0.015156  0.239759  0  .  1
   O  O69  1  0.478893  0.742667  0.509783  0  .  1
   O  O70  1  0.478893  0.242667  0.990217  0  .  1
   O  O71  1  0.261392  0.766479  0.236420  0  .  1
   O  O72  1  0.253463  0.986630  0.972932  0  .  1
   O  O73  1  0.254036  0.499094  0.029561  0  .  1
   O  O74  1  0.261392  0.266479  0.263580  0  .  1
   O  O75  1  0.244895  0.753311  0.750451  0  .  1
   O  O76  1  0.253463  0.486630  0.527068  0  .  1
   O  O77  1  0.254036  0.999095  0.470439  0  .  1
   O  O78  1  0.244895  0.253311  0.749549  0  .  1
   O  O79  1  0.029257  0.753310  0.986711  0  .  1
   O  O80  1  0.029257  0.253310  0.513289  0  .  1
   O  O81  1  0.020193  0.504477  0.757721  0  .  1
   O  O82  1  0.020193  0.004477  0.742279  0  .  1
 
