#\#CIF1.1
##########################################################################
#               Crystallographic Information Format file 
#               Produced by PyCifRW module
# 
#  This is a CIF file.  CIF has been adopted by the International
#  Union of Crystallography as the standard for data archiving and 
#  transmission.
#
#  For information on this file format, follow the CIF links at
#  http://www.iucr.org
##########################################################################

data_Li23Ni17O40
_symmetry_space_group_name_H-M          'P 1'
_cell_length_a                          4.98045137308
_cell_length_b                          50.1820569811
_cell_length_c                          14.5080404553
_cell_angle_alpha                       22.3942195444
_cell_angle_beta                        29.537153907
_cell_angle_gamma                       33.0855919017
_chemical_name_systematic               'Generated by pymatgen'
_symmetry_Int_Tables_number             1
_chemical_formula_structural            Li23Ni17O40
_chemical_formula_sum                   'Li23 Ni17 O40'
_cell_volume                            670.144480534
_cell_formula_units_Z                   1
loop_
  _symmetry_equiv_pos_site_id
  _symmetry_equiv_pos_as_xyz
   1  'x, y, z'
 
loop_
  _atom_site_type_symbol
  _atom_site_label
  _atom_site_symmetry_multiplicity
  _atom_site_fract_x
  _atom_site_fract_y
  _atom_site_fract_z
  _atom_site_attached_hydrogens
  _atom_site_B_iso_or_equiv
  _atom_site_occupancy
   Li  Li1  1  0.500719  0.024855  0.249206  0  .  1
   Li  Li2  1  0.502803  0.125987  0.245149  0  .  1
   Li  Li3  1  0.499281  0.075145  0.750794  0  .  1
   Li  Li4  1  0.490317  0.225925  0.252101  0  .  1
   Li  Li5  1  0.000292  0.250320  0.498868  0  .  1
   Li  Li6  1  0.498241  0.177574  0.742516  0  .  1
   Li  Li7  1  0.500499  0.322861  0.256946  0  .  1
   Li  Li8  1  0.507240  0.274545  0.746456  0  .  1
   Li  Li9  1  0.503275  0.425303  0.245696  0  .  1
   Li  Li10  1  0.496023  0.374843  0.754197  0  .  1
   Li  Li11  1  0.492886  0.525847  0.252073  0  .  1
   Li  Li12  1  0.500180  0.477196  0.742429  0  .  1
   Li  Li13  1  0.499820  0.622804  0.257571  0  .  1
   Li  Li14  1  0.000000  0.550000  0.500000  0  .  1
   Li  Li15  1  0.507114  0.574153  0.747927  0  .  1
   Li  Li16  1  0.503977  0.725157  0.245803  0  .  1
   Li  Li17  1  0.496725  0.674697  0.754304  0  .  1
   Li  Li18  1  0.492760  0.825455  0.253544  0  .  1
   Li  Li19  1  0.999708  0.849680  0.501132  0  .  1
   Li  Li20  1  0.499501  0.777139  0.743054  0  .  1
   Li  Li21  1  0.501759  0.922426  0.257484  0  .  1
   Li  Li22  1  0.509683  0.874075  0.747899  0  .  1
   Li  Li23  1  0.497197  0.974013  0.754851  0  .  1
   Ni  Ni24  1  0.002812  0.999798  0.000817  0  .  1
   Ni  Ni25  1  0.997188  0.100202  0.999183  0  .  1
   Ni  Ni26  1  0.000000  0.050000  0.500000  0  .  1
   Ni  Ni27  1  -0.002956  0.199838  -0.000283  0  .  1
   Ni  Ni28  1  0.000950  0.150436  0.498383  0  .  1
   Ni  Ni29  1  0.000062  0.400138  0.999560  0  .  1
   Ni  Ni30  1  0.998034  0.299864  0.003135  0  .  1
   Ni  Ni31  1  0.003553  0.349931  0.498119  0  .  1
   Ni  Ni32  1  -0.001182  0.500240  0.997590  0  .  1
   Ni  Ni33  1  0.999938  0.699862  0.000440  0  .  1
   Ni  Ni34  1  0.996805  0.450410  0.500624  0  .  1
   Ni  Ni35  1  0.001182  0.599760  0.002410  0  .  1
   Ni  Ni36  1  0.001966  0.800136  0.996865  0  .  1
   Ni  Ni37  1  0.003195  0.649590  0.499376  0  .  1
   Ni  Ni38  1  0.996447  0.750069  0.501881  0  .  1
   Ni  Ni39  1  0.002956  0.900162  0.000283  0  .  1
   Ni  Ni40  1  -0.000950  0.949564  0.501617  0  .  1
   O  O41  1  0.246214  0.015062  0.126111  0  .  1
   O  O42  1  0.270112  0.114983  0.113022  0  .  1
   O  O43  1  0.764387  0.036605  0.363920  0  .  1
   O  O44  1  0.235613  0.063395  0.636080  0  .  1
   O  O45  1  0.277578  0.210719  0.128127  0  .  1
   O  O46  1  0.726790  0.139667  0.364963  0  .  1
   O  O47  1  0.276648  0.318130  0.107941  0  .  1
   O  O48  1  0.287766  0.158083  0.636016  0  .  1
   O  O49  1  0.753786  0.084938  0.873889  0  .  1
   O  O50  1  0.780993  0.235079  0.366101  0  .  1
   O  O51  1  0.302941  0.411423  0.117090  0  .  1
   O  O52  1  0.212954  0.264438  0.637858  0  .  1
   O  O53  1  0.725242  0.342950  0.354990  0  .  1
   O  O54  1  0.715523  0.182337  0.894311  0  .  1
   O  O55  1  0.261155  0.363584  0.629303  0  .  1
   O  O56  1  0.279804  0.511654  0.123672  0  .  1
   O  O57  1  0.738236  0.436481  0.370581  0  .  1
   O  O58  1  0.722863  0.287137  0.878767  0  .  1
   O  O59  1  0.278189  0.617897  0.108295  0  .  1
   O  O60  1  0.275998  0.457160  0.644387  0  .  1
   O  O61  1  0.785682  0.535349  0.363711  0  .  1
   O  O62  1  0.697696  0.389350  0.880266  0  .  1
   O  O63  1  0.214318  0.564651  0.636289  0  .  1
   O  O64  1  0.302304  0.710650  0.119734  0  .  1
   O  O65  1  0.721811  0.482103  0.891705  0  .  1
   O  O66  1  0.724002  0.642840  0.355613  0  .  1
   O  O67  1  0.261764  0.663519  0.629419  0  .  1
   O  O68  1  0.277137  0.812863  0.121233  0  .  1
   O  O69  1  0.738845  0.736416  0.370697  0  .  1
   O  O70  1  0.720196  0.588346  0.876328  0  .  1
   O  O71  1  0.274758  0.757050  0.645010  0  .  1
   O  O72  1  0.284477  0.917663  0.105689  0  .  1
   O  O73  1  0.697059  0.688577  0.882910  0  .  1
   O  O74  1  0.787046  0.835562  0.362142  0  .  1
   O  O75  1  0.219007  0.864921  0.633899  0  .  1
   O  O76  1  0.723352  0.781870  0.892059  0  .  1
   O  O77  1  0.712234  0.941917  0.363984  0  .  1
   O  O78  1  0.273210  0.960333  0.635037  0  .  1
   O  O79  1  0.722422  0.889281  0.871873  0  .  1
   O  O80  1  0.729888  0.985017  0.886978  0  .  1
 
