#\#CIF1.1
##########################################################################
#               Crystallographic Information Format file 
#               Produced by PyCifRW module
# 
#  This is a CIF file.  CIF has been adopted by the International
#  Union of Crystallography as the standard for data archiving and 
#  transmission.
#
#  For information on this file format, follow the CIF links at
#  http://www.iucr.org
##########################################################################

data_Li2Cr3O10
_symmetry_space_group_name_H-M          'P 1'
_cell_length_a                          7.48124332516
_cell_length_b                          6.79695366596
_cell_length_c                          16.91814668
_cell_angle_alpha                       90.0
_cell_angle_beta                        90.0
_cell_angle_gamma                       76.5269978974
_chemical_name_systematic               'Generated by pymatgen'
_symmetry_Int_Tables_number             1
_chemical_formula_structural            Li2Cr3O10
_chemical_formula_sum                   'Li8 Cr12 O40'
_cell_volume                            836.606954152
_cell_formula_units_Z                   4
loop_
  _symmetry_equiv_pos_site_id
  _symmetry_equiv_pos_as_xyz
   1  'x, y, z'
 
loop_
  _atom_site_type_symbol
  _atom_site_label
  _atom_site_symmetry_multiplicity
  _atom_site_fract_x
  _atom_site_fract_y
  _atom_site_fract_z
  _atom_site_attached_hydrogens
  _atom_site_B_iso_or_equiv
  _atom_site_occupancy
   Li  Li1  1  0.026524  0.049932  0.327662  0  .  1
   Li  Li2  1  0.133725  0.344006  0.605317  0  .  1
   Li  Li3  1  0.366275  0.155994  0.105317  0  .  1
   Li  Li4  1  0.473476  0.450068  0.827662  0  .  1
   Li  Li5  1  0.526524  0.549932  0.172338  0  .  1
   Li  Li6  1  0.633725  0.844006  0.894683  0  .  1
   Li  Li7  1  0.866275  0.655994  0.394683  0  .  1
   Li  Li8  1  0.973476  0.950068  0.672338  0  .  1
   Cr  Cr9  1  0.104424  0.157111  0.910590  0  .  1
   Cr  Cr10  1  0.051799  0.524486  0.226676  0  .  1
   Cr  Cr11  1  0.266220  0.635649  0.001969  0  .  1
   Cr  Cr12  1  0.233780  0.864351  0.501969  0  .  1
   Cr  Cr13  1  0.395576  0.342889  0.410590  0  .  1
   Cr  Cr14  1  0.551799  0.024486  0.273324  0  .  1
   Cr  Cr15  1  0.448201  0.975514  0.726676  0  .  1
   Cr  Cr16  1  0.604424  0.657111  0.589410  0  .  1
   Cr  Cr17  1  0.766220  0.135649  0.498031  0  .  1
   Cr  Cr18  1  0.733780  0.364351  0.998031  0  .  1
   Cr  Cr19  1  0.948201  0.475514  0.773324  0  .  1
   Cr  Cr20  1  0.895576  0.842889  0.089410  0  .  1
   O  O21  1  0.028118  0.775952  0.003828  0  .  1
   O  O22  1  0.110934  0.366712  0.850760  0  .  1
   O  O23  1  0.985917  0.990066  0.142507  0  .  1
   O  O24  1  0.056782  0.572922  0.704796  0  .  1
   O  O25  1  0.232053  0.093682  0.529950  0  .  1
   O  O26  1  0.129138  0.709764  0.262375  0  .  1
   O  O27  1  0.122299  0.763164  0.567161  0  .  1
   O  O28  1  0.222096  0.353728  0.189240  0  .  1
   O  O29  1  0.189053  0.453676  0.434985  0  .  1
   O  O30  1  0.310947  0.046324  0.934985  0  .  1
   O  O31  1  0.141487  0.867562  0.413780  0  .  1
   O  O32  1  0.277904  0.146272  0.689240  0  .  1
   O  O33  1  0.267947  0.406318  0.029950  0  .  1
   O  O34  1  0.389066  0.133288  0.350760  0  .  1
   O  O35  1  0.358513  0.632438  0.913780  0  .  1
   O  O36  1  0.377701  0.736836  0.067161  0  .  1
   O  O37  1  0.370862  0.790236  0.762375  0  .  1
   O  O38  1  0.528118  0.275952  0.496172  0  .  1
   O  O39  1  0.443218  0.927078  0.204796  0  .  1
   O  O40  1  0.514083  0.509934  0.642507  0  .  1
   O  O41  1  0.485917  0.490066  0.357493  0  .  1
   O  O42  1  0.556782  0.072922  0.795204  0  .  1
   O  O43  1  0.471882  0.724048  0.503828  0  .  1
   O  O44  1  0.629138  0.209764  0.237625  0  .  1
   O  O45  1  0.622299  0.263164  0.932839  0  .  1
   O  O46  1  0.641487  0.367562  0.086220  0  .  1
   O  O47  1  0.610934  0.866712  0.649240  0  .  1
   O  O48  1  0.732053  0.593682  0.970050  0  .  1
   O  O49  1  0.722096  0.853728  0.310760  0  .  1
   O  O50  1  0.858513  0.132438  0.586220  0  .  1
   O  O51  1  0.689053  0.953676  0.065015  0  .  1
   O  O52  1  0.810947  0.546324  0.565015  0  .  1
   O  O53  1  0.777904  0.646272  0.810760  0  .  1
   O  O54  1  0.877701  0.236836  0.432839  0  .  1
   O  O55  1  0.870862  0.290236  0.737625  0  .  1
   O  O56  1  0.767947  0.906318  0.470050  0  .  1
   O  O57  1  0.943218  0.427078  0.295204  0  .  1
   O  O58  1  0.014083  0.009934  0.857493  0  .  1
   O  O59  1  0.889066  0.633288  0.149240  0  .  1
   O  O60  1  0.971882  0.224048  0.996172  0  .  1
 
