#\#CIF1.1
##########################################################################
#               Crystallographic Information Format file 
#               Produced by PyCifRW module
# 
#  This is a CIF file.  CIF has been adopted by the International
#  Union of Crystallography as the standard for data archiving and 
#  transmission.
#
#  For information on this file format, follow the CIF links at
#  http://www.iucr.org
##########################################################################

data_Li2Cu2S3
_symmetry_space_group_name_H-M          'P 1'
_cell_length_a                          9.04877708859
_cell_length_b                          9.04877708859
_cell_length_c                          6.47272172064
_cell_angle_alpha                       69.7914174912
_cell_angle_beta                        69.7914174912
_cell_angle_gamma                       83.1797999403
_chemical_name_systematic               'Generated by pymatgen'
_symmetry_Int_Tables_number             1
_chemical_formula_structural            Li2Cu2S3
_chemical_formula_sum                   'Li8 Cu8 S12'
_cell_volume                            466.74625062
_cell_formula_units_Z                   4
loop_
  _symmetry_equiv_pos_site_id
  _symmetry_equiv_pos_as_xyz
   1  'x, y, z'
 
loop_
  _atom_site_type_symbol
  _atom_site_label
  _atom_site_symmetry_multiplicity
  _atom_site_fract_x
  _atom_site_fract_y
  _atom_site_fract_z
  _atom_site_attached_hydrogens
  _atom_site_B_iso_or_equiv
  _atom_site_occupancy
   Li  Li1  1  0.975185  0.809969  0.061016  0  .  1
   Li  Li2  1  0.809969  0.975185  0.561016  0  .  1
   Li  Li3  1  0.724606  0.275394  0.250000  0  .  1
   Li  Li4  1  0.428848  0.571152  0.250000  0  .  1
   Li  Li5  1  0.571152  0.428848  0.750000  0  .  1
   Li  Li6  1  0.275394  0.724606  0.750000  0  .  1
   Li  Li7  1  0.190031  0.024815  0.438984  0  .  1
   Li  Li8  1  0.024815  0.190031  0.938984  0  .  1
   Cu  Cu9  1  0.629745  0.783254  0.386585  0  .  1
   Cu  Cu10  1  0.921230  0.440844  0.400758  0  .  1
   Cu  Cu11  1  0.783254  0.629745  0.886585  0  .  1
   Cu  Cu12  1  0.440844  0.921230  0.900758  0  .  1
   Cu  Cu13  1  0.559156  0.078770  0.099242  0  .  1
   Cu  Cu14  1  0.216746  0.370255  0.113415  0  .  1
   Cu  Cu15  1  0.078770  0.559156  0.599242  0  .  1
   Cu  Cu16  1  0.370255  0.216746  0.613415  0  .  1
   S  S17  1  0.716893  0.565947  0.277700  0  .  1
   S  S18  1  0.405717  0.852954  0.287448  0  .  1
   S  S19  1  0.565947  0.716893  0.777700  0  .  1
   S  S20  1  0.852954  0.405717  0.787448  0  .  1
   S  S21  1  0.783992  0.002777  0.184005  0  .  1
   S  S22  1  0.216008  0.997223  0.815995  0  .  1
   S  S23  1  0.147046  0.594283  0.212552  0  .  1
   S  S24  1  0.434053  0.283107  0.222300  0  .  1
   S  S25  1  0.002777  0.783992  0.684005  0  .  1
   S  S26  1  0.594283  0.147046  0.712552  0  .  1
   S  S27  1  0.283107  0.434053  0.722300  0  .  1
   S  S28  1  0.997223  0.216008  0.315995  0  .  1
 
