#\#CIF1.1
##########################################################################
#               Crystallographic Information Format file 
#               Produced by PyCifRW module
# 
#  This is a CIF file.  CIF has been adopted by the International
#  Union of Crystallography as the standard for data archiving and 
#  transmission.
#
#  For information on this file format, follow the CIF links at
#  http://www.iucr.org
##########################################################################

data_Li2CoO2
_symmetry_space_group_name_H-M          'P 1'
_cell_length_a                          5.03536707418
_cell_length_b                          5.03536741058
_cell_length_c                          5.03536683751
_cell_angle_alpha                       134.647611439
_cell_angle_beta                        147.382667728
_cell_angle_gamma                       56.9730172231
_chemical_name_systematic               'Generated by pymatgen'
_symmetry_Int_Tables_number             1
_chemical_formula_structural            Li2CoO2
_chemical_formula_sum                   'Li2 Co1 O2'
_cell_volume                            48.5929043289
_cell_formula_units_Z                   1
loop_
  _symmetry_equiv_pos_site_id
  _symmetry_equiv_pos_as_xyz
   1  'x, y, z'
 
loop_
  _atom_site_type_symbol
  _atom_site_label
  _atom_site_symmetry_multiplicity
  _atom_site_fract_x
  _atom_site_fract_y
  _atom_site_fract_z
  _atom_site_attached_hydrogens
  _atom_site_B_iso_or_equiv
  _atom_site_occupancy
   Li  Li1  1  0.304495  0.804495  0.500000  0  .  1
   Li  Li2  1  0.695505  0.195505  0.500000  0  .  1
   Co  Co3  1  0.000000  0.500000  0.500000  0  .  1
   O  O4  1  0.358081  0.358081  1.000000  0  .  1
   O  O5  1  0.641919  0.641919  0.000000  0  .  1
 
