#\#CIF1.1
##########################################################################
#               Crystallographic Information Format file 
#               Produced by PyCifRW module
# 
#  This is a CIF file.  CIF has been adopted by the International
#  Union of Crystallography as the standard for data archiving and 
#  transmission.
#
#  For information on this file format, follow the CIF links at
#  http://www.iucr.org
##########################################################################

data_Li2CrO4
_symmetry_space_group_name_H-M          'P 1'
_cell_length_a                          7.74498822306
_cell_length_b                          9.79513273
_cell_length_c                          9.76891453656
_cell_angle_alpha                       90.0
_cell_angle_beta                        93.1123093661
_cell_angle_gamma                       90.0
_chemical_name_systematic               'Generated by pymatgen'
_symmetry_Int_Tables_number             1
_chemical_formula_structural            Li2CrO4
_chemical_formula_sum                   'Li16 Cr8 O32'
_cell_volume                            740.007894055
_cell_formula_units_Z                   8
loop_
  _symmetry_equiv_pos_site_id
  _symmetry_equiv_pos_as_xyz
   1  'x, y, z'
 
loop_
  _atom_site_type_symbol
  _atom_site_label
  _atom_site_symmetry_multiplicity
  _atom_site_fract_x
  _atom_site_fract_y
  _atom_site_fract_z
  _atom_site_attached_hydrogens
  _atom_site_B_iso_or_equiv
  _atom_site_occupancy
   Li  Li1  1  0.527806  0.632756  0.598167  0  .  1
   Li  Li2  1  0.527806  0.867244  0.098167  0  .  1
   Li  Li3  1  0.461406  0.655655  0.849356  0  .  1
   Li  Li4  1  0.461406  0.844345  0.349356  0  .  1
   Li  Li5  1  0.500999  0.140502  0.084427  0  .  1
   Li  Li6  1  0.500999  0.359498  0.584427  0  .  1
   Li  Li7  1  0.800388  0.629042  0.064910  0  .  1
   Li  Li8  1  0.800388  0.870958  0.564910  0  .  1
   Li  Li9  1  0.849416  0.378049  0.411060  0  .  1
   Li  Li10  1  0.849416  0.121951  0.911060  0  .  1
   Li  Li11  1  0.877674  0.145730  0.638931  0  .  1
   Li  Li12  1  0.877674  0.354270  0.138931  0  .  1
   Li  Li13  1  0.097035  0.654788  0.649864  0  .  1
   Li  Li14  1  0.097035  0.845212  0.149864  0  .  1
   Li  Li15  1  0.085443  0.091651  0.423563  0  .  1
   Li  Li16  1  0.085443  0.408349  0.923563  0  .  1
   Cr  Cr17  1  0.156065  0.129411  0.131368  0  .  1
   Cr  Cr18  1  0.156065  0.370589  0.631368  0  .  1
   Cr  Cr19  1  0.374703  0.614822  0.129049  0  .  1
   Cr  Cr20  1  0.374703  0.885178  0.629049  0  .  1
   Cr  Cr21  1  0.670291  0.123907  0.366640  0  .  1
   Cr  Cr22  1  0.670291  0.376093  0.866640  0  .  1
   Cr  Cr23  1  0.808801  0.635299  0.381355  0  .  1
   Cr  Cr24  1  0.808801  0.864701  0.881355  0  .  1
   O  O25  1  0.014744  0.275431  0.528132  0  .  1
   O  O26  1  0.014744  0.224569  0.028132  0  .  1
   O  O27  1  0.048673  0.021988  0.229155  0  .  1
   O  O28  1  0.048673  0.478012  0.729155  0  .  1
   O  O29  1  0.288299  0.037608  0.040010  0  .  1
   O  O30  1  0.288299  0.462392  0.540010  0  .  1
   O  O31  1  0.269093  0.231560  0.231123  0  .  1
   O  O32  1  0.269093  0.268440  0.731123  0  .  1
   O  O33  1  0.311849  0.762461  0.206010  0  .  1
   O  O34  1  0.311849  0.737539  0.706010  0  .  1
   O  O35  1  0.220554  0.551483  0.024213  0  .  1
   O  O36  1  0.220554  0.948517  0.524213  0  .  1
   O  O37  1  0.441380  0.503608  0.240051  0  .  1
   O  O38  1  0.441380  0.996392  0.740051  0  .  1
   O  O39  1  0.543642  0.832143  0.535508  0  .  1
   O  O40  1  0.543642  0.667857  0.035508  0  .  1
   O  O41  1  0.546071  0.298658  0.972845  0  .  1
   O  O42  1  0.546071  0.201342  0.472845  0  .  1
   O  O43  1  0.555904  0.018645  0.261204  0  .  1
   O  O44  1  0.555904  0.481355  0.761204  0  .  1
   O  O45  1  0.823216  0.041947  0.464779  0  .  1
   O  O46  1  0.823216  0.458053  0.964779  0  .  1
   O  O47  1  0.764310  0.243578  0.274448  0  .  1
   O  O48  1  0.764310  0.256422  0.774448  0  .  1
   O  O49  1  0.696581  0.750698  0.292432  0  .  1
   O  O50  1  0.696581  0.749302  0.792432  0  .  1
   O  O51  1  0.687992  0.532306  0.474821  0  .  1
   O  O52  1  0.687992  0.967694  0.974821  0  .  1
   O  O53  1  0.906705  0.531820  0.271954  0  .  1
   O  O54  1  0.906705  0.968180  0.771954  0  .  1
   O  O55  1  0.945356  0.784442  0.993164  0  .  1
   O  O56  1  0.945356  0.715558  0.493164  0  .  1
 
