#\#CIF1.1
##########################################################################
#               Crystallographic Information Format file 
#               Produced by PyCifRW module
# 
#  This is a CIF file.  CIF has been adopted by the International
#  Union of Crystallography as the standard for data archiving and 
#  transmission.
#
#  For information on this file format, follow the CIF links at
#  http://www.iucr.org
##########################################################################

data_Li2CuS2
_symmetry_space_group_name_H-M          'P 1'
_cell_length_a                          5.59665644955
_cell_length_b                          7.94202809908
_cell_length_c                          5.80595841172
_cell_angle_alpha                       90.0080694301
_cell_angle_beta                        90.1632436087
_cell_angle_gamma                       44.8522348367
_chemical_name_systematic               'Generated by pymatgen'
_symmetry_Int_Tables_number             1
_chemical_formula_structural            Li2CuS2
_chemical_formula_sum                   'Li4 Cu2 S4'
_cell_volume                            182.008953491
_cell_formula_units_Z                   2
loop_
  _symmetry_equiv_pos_site_id
  _symmetry_equiv_pos_as_xyz
   1  'x, y, z'
 
loop_
  _atom_site_type_symbol
  _atom_site_label
  _atom_site_symmetry_multiplicity
  _atom_site_fract_x
  _atom_site_fract_y
  _atom_site_fract_z
  _atom_site_attached_hydrogens
  _atom_site_B_iso_or_equiv
  _atom_site_occupancy
   Li  Li1  1  0.006887  0.496722  0.762381  0  .  1
   Li  Li2  1  0.006775  0.996443  0.762379  0  .  1
   Li  Li3  1  0.010718  0.498688  0.261651  0  .  1
   Li  Li4  1  0.010755  0.990421  0.261605  0  .  1
   Cu  Cu5  1  0.498810  0.000574  0.262645  0  .  1
   Cu  Cu6  1  0.499771  0.000072  0.765488  0  .  1
   S  S7  1  0.045611  0.227190  0.510868  0  .  1
   S  S8  1  0.509009  0.767372  0.012518  0  .  1
   S  S9  1  0.508771  0.223688  0.012616  0  .  1
   S  S10  1  0.956705  0.771629  0.513801  0  .  1
 
