#\#CIF1.1
##########################################################################
#               Crystallographic Information Format file 
#               Produced by PyCifRW module
# 
#  This is a CIF file.  CIF has been adopted by the International
#  Union of Crystallography as the standard for data archiving and 
#  transmission.
#
#  For information on this file format, follow the CIF links at
#  http://www.iucr.org
##########################################################################

data_Li2Cu4S3
_symmetry_space_group_name_H-M          'P 1'
_cell_length_a                          10.390655
_cell_length_b                          3.87170352
_cell_length_c                          14.36661089
_cell_angle_alpha                       90.0
_cell_angle_beta                        90.0
_cell_angle_gamma                       90.0
_chemical_name_systematic               'Generated by pymatgen'
_symmetry_Int_Tables_number             1
_chemical_formula_structural            Li2Cu4S3
_chemical_formula_sum                   'Li8 Cu16 S12'
_cell_volume                            577.962083369
_cell_formula_units_Z                   4
loop_
  _symmetry_equiv_pos_site_id
  _symmetry_equiv_pos_as_xyz
   1  'x, y, z'
 
loop_
  _atom_site_type_symbol
  _atom_site_label
  _atom_site_symmetry_multiplicity
  _atom_site_fract_x
  _atom_site_fract_y
  _atom_site_fract_z
  _atom_site_attached_hydrogens
  _atom_site_B_iso_or_equiv
  _atom_site_occupancy
   Li  Li1  1  0.044679  0.750000  0.751979  0  .  1
   Li  Li2  1  0.134116  0.750000  0.364748  0  .  1
   Li  Li3  1  0.365884  0.250000  0.864748  0  .  1
   Li  Li4  1  0.455321  0.250000  0.251979  0  .  1
   Li  Li5  1  0.544679  0.750000  0.748021  0  .  1
   Li  Li6  1  0.634116  0.750000  0.135252  0  .  1
   Li  Li7  1  0.865884  0.250000  0.635252  0  .  1
   Li  Li8  1  0.955321  0.250000  0.248021  0  .  1
   Cu  Cu9  1  0.217049  0.250000  0.630897  0  .  1
   Cu  Cu10  1  0.200261  0.250000  0.238560  0  .  1
   Cu  Cu11  1  0.093846  0.250000  0.482979  0  .  1
   Cu  Cu12  1  0.108215  0.250000  0.869890  0  .  1
   Cu  Cu13  1  0.391785  0.750000  0.369890  0  .  1
   Cu  Cu14  1  0.406154  0.750000  0.982979  0  .  1
   Cu  Cu15  1  0.299739  0.750000  0.738560  0  .  1
   Cu  Cu16  1  0.282951  0.750000  0.130897  0  .  1
   Cu  Cu17  1  0.717049  0.250000  0.869103  0  .  1
   Cu  Cu18  1  0.700261  0.250000  0.261440  0  .  1
   Cu  Cu19  1  0.593846  0.250000  0.017021  0  .  1
   Cu  Cu20  1  0.608215  0.250000  0.630110  0  .  1
   Cu  Cu21  1  0.891785  0.750000  0.130110  0  .  1
   Cu  Cu22  1  0.906154  0.750000  0.517021  0  .  1
   Cu  Cu23  1  0.799739  0.750000  0.761440  0  .  1
   Cu  Cu24  1  0.782951  0.750000  0.369103  0  .  1
   S  S25  1  0.216317  0.750000  0.888120  0  .  1
   S  S26  1  0.105407  0.750000  0.589679  0  .  1
   S  S27  1  0.085851  0.750000  0.198378  0  .  1
   S  S28  1  0.414149  0.250000  0.698378  0  .  1
   S  S29  1  0.394593  0.250000  0.089679  0  .  1
   S  S30  1  0.283683  0.250000  0.388120  0  .  1
   S  S31  1  0.716317  0.750000  0.611880  0  .  1
   S  S32  1  0.605407  0.750000  0.910321  0  .  1
   S  S33  1  0.585851  0.750000  0.301622  0  .  1
   S  S34  1  0.914149  0.250000  0.801622  0  .  1
   S  S35  1  0.894593  0.250000  0.410321  0  .  1
   S  S36  1  0.783683  0.250000  0.111880  0  .  1
 
