#\#CIF1.1
##########################################################################
#               Crystallographic Information Format file 
#               Produced by PyCifRW module
# 
#  This is a CIF file.  CIF has been adopted by the International
#  Union of Crystallography as the standard for data archiving and 
#  transmission.
#
#  For information on this file format, follow the CIF links at
#  http://www.iucr.org
##########################################################################

data_Li2CoO3
_symmetry_space_group_name_H-M          'P 1'
_cell_length_a                          9.10554266432
_cell_length_b                          9.10554679432
_cell_length_c                          3.27154984
_cell_angle_alpha                       89.999952964
_cell_angle_beta                        90.0000738752
_cell_angle_gamma                       89.9964714078
_chemical_name_systematic               'Generated by pymatgen'
_symmetry_Int_Tables_number             1
_chemical_formula_structural            Li2CoO3
_chemical_formula_sum                   'Li8 Co4 O12'
_cell_volume                            271.247287738
_cell_formula_units_Z                   4
loop_
  _symmetry_equiv_pos_site_id
  _symmetry_equiv_pos_as_xyz
   1  'x, y, z'
 
loop_
  _atom_site_type_symbol
  _atom_site_label
  _atom_site_symmetry_multiplicity
  _atom_site_fract_x
  _atom_site_fract_y
  _atom_site_fract_z
  _atom_site_attached_hydrogens
  _atom_site_B_iso_or_equiv
  _atom_site_occupancy
   Li  Li1  1  0.111928  0.320015  0.500000  0  .  1
   Li  Li2  1  0.179977  0.611976  0.000000  0  .  1
   Li  Li3  1  0.319991  0.111918  0.500000  0  .  1
   Li  Li4  1  0.388038  0.820016  -0.000000  0  .  1
   Li  Li5  1  0.611965  0.179969  1.000000  0  .  1
   Li  Li6  1  0.679982  0.888063  0.500000  0  .  1
   Li  Li7  1  0.820023  0.388049  0.999999  0  .  1
   Li  Li8  1  0.888072  0.680007  0.500000  0  .  1
   Co  Co9  1  0.110287  0.889713  0.500001  0  .  1
   Co  Co10  1  0.389711  0.389707  1.000000  0  .  1
   Co  Co11  1  0.610294  0.610291  0.000001  0  .  1
   Co  Co12  1  0.889713  0.110286  0.500000  0  .  1
   O  O13  1  0.093545  0.093545  0.499999  0  .  1
   O  O14  1  0.098263  0.699696  0.500000  0  .  1
   O  O15  1  0.199702  0.401752  0.999999  0  .  1
   O  O16  1  0.300308  0.901733  0.499999  0  .  1
   O  O17  1  0.401746  0.199697  0.999998  0  .  1
   O  O18  1  0.406450  0.593549  0.000004  0  .  1
   O  O19  1  0.593554  0.406445  0.999998  0  .  1
   O  O20  1  0.598251  0.800296  0.000001  0  .  1
   O  O21  1  0.699700  0.098258  0.500001  0  .  1
   O  O22  1  0.800303  0.598257  0.999999  0  .  1
   O  O23  1  0.901738  0.300304  0.499999  0  .  1
   O  O24  1  0.906459  0.906459  0.500002  0  .  1
 
