#\#CIF1.1
##########################################################################
#               Crystallographic Information Format file 
#               Produced by PyCifRW module
# 
#  This is a CIF file.  CIF has been adopted by the International
#  Union of Crystallography as the standard for data archiving and 
#  transmission.
#
#  For information on this file format, follow the CIF links at
#  http://www.iucr.org
##########################################################################

data_Li2CrO2
_symmetry_space_group_name_H-M          'P 1'
_cell_length_a                          3.49451728592
_cell_length_b                          3.49456033581
_cell_length_c                          5.47704589898
_cell_angle_alpha                       79.5153185537
_cell_angle_beta                        79.5137082324
_cell_angle_gamma                       50.3415104247
_chemical_name_systematic               'Generated by pymatgen'
_symmetry_Int_Tables_number             1
_chemical_formula_structural            Li2CrO2
_chemical_formula_sum                   'Li2 Cr1 O2'
_cell_volume                            50.4401855768
_cell_formula_units_Z                   1
loop_
  _symmetry_equiv_pos_site_id
  _symmetry_equiv_pos_as_xyz
   1  'x, y, z'
 
loop_
  _atom_site_type_symbol
  _atom_site_label
  _atom_site_symmetry_multiplicity
  _atom_site_fract_x
  _atom_site_fract_y
  _atom_site_fract_z
  _atom_site_attached_hydrogens
  _atom_site_B_iso_or_equiv
  _atom_site_occupancy
   Li  Li1  1  0.327347  0.327086  0.630844  0  .  1
   Li  Li2  1  0.672906  0.672668  0.369165  0  .  1
   Cr  Cr3  1  0.999413  0.000573  -0.000031  0  .  1
   O  O4  1  0.388542  0.388191  0.258850  0  .  1
   O  O5  1  0.611791  0.611482  0.741173  0  .  1
 
