#\#CIF1.1
##########################################################################
#               Crystallographic Information Format file 
#               Produced by PyCifRW module
# 
#  This is a CIF file.  CIF has been adopted by the International
#  Union of Crystallography as the standard for data archiving and 
#  transmission.
#
#  For information on this file format, follow the CIF links at
#  http://www.iucr.org
##########################################################################

data_Li2FeS2
_symmetry_space_group_name_H-M          'P 1'
_cell_length_a                          3.83632091
_cell_length_b                          3.7843488125
_cell_length_c                          6.11733743428
_cell_angle_alpha                       90.2318219413
_cell_angle_beta                        90.0
_cell_angle_gamma                       120.455347633
_chemical_name_systematic               'Generated by pymatgen'
_symmetry_Int_Tables_number             1
_chemical_formula_structural            Li2FeS2
_chemical_formula_sum                   'Li2 Fe1 S2'
_cell_volume                            76.5567203375
_cell_formula_units_Z                   1
loop_
  _symmetry_equiv_pos_site_id
  _symmetry_equiv_pos_as_xyz
   1  'x, y, z'
 
loop_
  _atom_site_type_symbol
  _atom_site_label
  _atom_site_symmetry_multiplicity
  _atom_site_fract_x
  _atom_site_fract_y
  _atom_site_fract_z
  _atom_site_attached_hydrogens
  _atom_site_B_iso_or_equiv
  _atom_site_occupancy
   Li  Li1  1  0.330642  0.661283  0.638673  0  .  1
   Li  Li2  1  0.669358  0.338717  0.361327  0  .  1
   Fe  Fe3  1  0.000000  0.000000  0.000000  0  .  1
   S  S4  1  0.331797  0.663593  0.224147  0  .  1
   S  S5  1  0.668203  0.336407  0.775853  0  .  1
 
