#\#CIF1.1
##########################################################################
#               Crystallographic Information Format file 
#               Produced by PyCifRW module
# 
#  This is a CIF file.  CIF has been adopted by the International
#  Union of Crystallography as the standard for data archiving and 
#  transmission.
#
#  For information on this file format, follow the CIF links at
#  http://www.iucr.org
##########################################################################

data_Li2Fe3S4
_symmetry_space_group_name_H-M          'P 1'
_cell_length_a                          6.52923831
_cell_length_b                          8.97201954854
_cell_length_c                          6.20711748088
_cell_angle_alpha                       72.7351241095
_cell_angle_beta                        90.0
_cell_angle_gamma                       68.6621424212
_chemical_name_systematic               'Generated by pymatgen'
_symmetry_Int_Tables_number             1
_chemical_formula_structural            Li2Fe3S4
_chemical_formula_sum                   'Li4 Fe6 S8'
_cell_volume                            321.037291093
_cell_formula_units_Z                   2
loop_
  _symmetry_equiv_pos_site_id
  _symmetry_equiv_pos_as_xyz
   1  'x, y, z'
 
loop_
  _atom_site_type_symbol
  _atom_site_label
  _atom_site_symmetry_multiplicity
  _atom_site_fract_x
  _atom_site_fract_y
  _atom_site_fract_z
  _atom_site_attached_hydrogens
  _atom_site_B_iso_or_equiv
  _atom_site_occupancy
   Li  Li1  1  0.189831  0.825966  0.944707  0  .  1
   Li  Li2  1  0.984203  0.825966  0.444707  0  .  1
   Li  Li3  1  0.015797  0.174034  0.555293  0  .  1
   Li  Li4  1  0.810169  0.174034  0.055293  0  .  1
   Fe  Fe5  1  0.557043  0.628412  0.557616  0  .  1
   Fe  Fe6  1  0.814544  0.628412  0.057616  0  .  1
   Fe  Fe7  1  0.185456  0.371588  0.942384  0  .  1
   Fe  Fe8  1  0.442957  0.371588  0.442384  0  .  1
   Fe  Fe9  1  0.512556  0.000000  0.750000  0  .  1
   Fe  Fe10  1  0.487444  1.000000  0.250000  0  .  1
   S  S11  1  0.306425  0.892159  0.556041  0  .  1
   S  S12  1  0.801416  0.892159  0.056041  0  .  1
   S  S13  1  0.896515  0.603839  0.703859  0  .  1
   S  S14  1  0.500354  0.396161  0.796141  0  .  1
   S  S15  1  0.499646  0.603839  0.203859  0  .  1
   S  S16  1  0.103485  0.396161  0.296141  0  .  1
   S  S17  1  0.198584  0.107841  0.943959  0  .  1
   S  S18  1  0.693575  0.107841  0.443959  0  .  1
 
