#\#CIF1.1
##########################################################################
#               Crystallographic Information Format file 
#               Produced by PyCifRW module
# 
#  This is a CIF file.  CIF has been adopted by the International
#  Union of Crystallography as the standard for data archiving and 
#  transmission.
#
#  For information on this file format, follow the CIF links at
#  http://www.iucr.org
##########################################################################

data_Li2FeO3
_symmetry_space_group_name_H-M          'P 1'
_cell_length_a                          2.89542390811
_cell_length_b                          5.86586100343
_cell_length_c                          6.38868764981
_cell_angle_alpha                       103.888612406
_cell_angle_beta                        103.086038975
_cell_angle_gamma                       89.9983834707
_chemical_name_systematic               'Generated by pymatgen'
_symmetry_Int_Tables_number             1
_chemical_formula_structural            Li2FeO3
_chemical_formula_sum                   'Li4 Fe2 O6'
_cell_volume                            102.429343125
_cell_formula_units_Z                   2
loop_
  _symmetry_equiv_pos_site_id
  _symmetry_equiv_pos_as_xyz
   1  'x, y, z'
 
loop_
  _atom_site_type_symbol
  _atom_site_label
  _atom_site_symmetry_multiplicity
  _atom_site_fract_x
  _atom_site_fract_y
  _atom_site_fract_z
  _atom_site_attached_hydrogens
  _atom_site_B_iso_or_equiv
  _atom_site_occupancy
   Li  Li1  1  0.673915  0.826255  0.347000  0  .  1
   Li  Li2  1  0.992833  0.506845  0.986513  0  .  1
   Li  Li3  1  0.333292  0.166774  0.666602  0  .  1
   Li  Li4  1  0.333401  0.666484  0.666785  0  .  1
   Fe  Fe5  1  0.672266  0.339649  0.344938  0  .  1
   Fe  Fe6  1  0.994492  0.993677  0.988578  0  .  1
   O  O7  1  0.507954  0.230384  0.015632  0  .  1
   O  O8  1  0.818882  0.406983  0.638338  0  .  1
   O  O9  1  0.847650  0.926104  0.694712  0  .  1
   O  O10  1  0.503831  0.781557  0.007283  0  .  1
   O  O11  1  0.158561  0.103230  0.317419  0  .  1
   O  O12  1  0.162888  0.552012  0.326159  0  .  1
 
