#\#CIF1.1
##########################################################################
#               Crystallographic Information Format file 
#               Produced by PyCifRW module
# 
#  This is a CIF file.  CIF has been adopted by the International
#  Union of Crystallography as the standard for data archiving and 
#  transmission.
#
#  For information on this file format, follow the CIF links at
#  http://www.iucr.org
##########################################################################

data_Li2Mn15O32
_symmetry_space_group_name_H-M          'P 1'
_cell_length_a                          5.8232496
_cell_length_b                          5.82324872843
_cell_length_c                          23.4638720881
_cell_angle_alpha                       60.2406135339
_cell_angle_beta                        60.240612379
_cell_angle_gamma                       60.0000010552
_chemical_name_systematic               'Generated by pymatgen'
_symmetry_Int_Tables_number             1
_chemical_formula_structural            Li2Mn15O32
_chemical_formula_sum                   'Li2 Mn15 O32'
_cell_volume                            564.657845847
_cell_formula_units_Z                   1
loop_
  _symmetry_equiv_pos_site_id
  _symmetry_equiv_pos_as_xyz
   1  'x, y, z'
 
loop_
  _atom_site_type_symbol
  _atom_site_label
  _atom_site_symmetry_multiplicity
  _atom_site_fract_x
  _atom_site_fract_y
  _atom_site_fract_z
  _atom_site_attached_hydrogens
  _atom_site_B_iso_or_equiv
  _atom_site_occupancy
   Li  Li1  1  0.126040  0.126040  0.030470  0  .  1
   Li  Li2  1  0.878842  0.878842  0.965868  0  .  1
   Mn  Mn3  1  0.011317  0.502037  0.121152  0  .  1
   Mn  Mn4  1  0.502037  0.502037  0.121152  0  .  1
   Mn  Mn5  1  0.002069  0.493331  0.377817  0  .  1
   Mn  Mn6  1  0.502037  0.011317  0.121152  0  .  1
   Mn  Mn7  1  0.493331  0.493331  0.377817  0  .  1
   Mn  Mn8  1  0.998508  0.499174  0.625786  0  .  1
   Mn  Mn9  1  0.498087  0.498087  0.501435  0  .  1
   Mn  Mn10  1  0.879064  0.879064  0.215702  0  .  1
   Mn  Mn11  1  0.493331  0.002069  0.377817  0  .  1
   Mn  Mn12  1  0.499174  0.499174  0.625786  0  .  1
   Mn  Mn13  1  0.994813  0.501795  0.875399  0  .  1
   Mn  Mn14  1  0.499174  0.998508  0.625786  0  .  1
   Mn  Mn15  1  0.498791  0.498791  0.750907  0  .  1
   Mn  Mn16  1  0.501795  0.501795  0.875399  0  .  1
   Mn  Mn17  1  0.501795  0.994813  0.875399  0  .  1
   O  O18  1  0.247259  0.247259  0.071802  0  .  1
   O  O19  1  0.267719  0.267719  0.174210  0  .  1
   O  O20  1  0.247259  0.718275  0.071802  0  .  1
   O  O21  1  0.718275  0.247259  0.071802  0  .  1
   O  O22  1  0.249486  0.249486  0.325096  0  .  1
   O  O23  1  0.286557  0.750979  0.177871  0  .  1
   O  O24  1  0.259708  0.259708  0.430219  0  .  1
   O  O25  1  0.249486  0.700646  0.325096  0  .  1
   O  O26  1  0.739443  0.739443  0.070418  0  .  1
   O  O27  1  0.750979  0.286557  0.177871  0  .  1
   O  O28  1  0.700646  0.249486  0.325096  0  .  1
   O  O29  1  0.750979  0.750979  0.177871  0  .  1
   O  O30  1  0.264002  0.264002  0.567000  0  .  1
   O  O31  1  0.294041  0.732986  0.434997  0  .  1
   O  O32  1  0.264740  0.264740  0.676445  0  .  1
   O  O33  1  0.264002  0.703996  0.567000  0  .  1
   O  O34  1  0.737115  0.737115  0.322164  0  .  1
   O  O35  1  0.732986  0.294041  0.434997  0  .  1
   O  O36  1  0.703996  0.264002  0.567000  0  .  1
   O  O37  1  0.732986  0.732986  0.434997  0  .  1
   O  O38  1  0.265939  0.265939  0.816342  0  .  1
   O  O39  1  0.294467  0.734898  0.683934  0  .  1
   O  O40  1  0.262958  0.262958  0.927781  0  .  1
   O  O41  1  0.733562  0.733562  0.574828  0  .  1
   O  O42  1  0.265939  0.702753  0.816342  0  .  1
   O  O43  1  0.734898  0.294467  0.683934  0  .  1
   O  O44  1  0.702753  0.265939  0.816342  0  .  1
   O  O45  1  0.734898  0.734898  0.683934  0  .  1
   O  O46  1  0.283176  0.759499  0.924457  0  .  1
   O  O47  1  0.735542  0.735542  0.823343  0  .  1
   O  O48  1  0.759499  0.283176  0.924457  0  .  1
   O  O49  1  0.759499  0.759499  0.924457  0  .  1
 
