#\#CIF1.1
##########################################################################
#               Crystallographic Information Format file 
#               Produced by PyCifRW module
# 
#  This is a CIF file.  CIF has been adopted by the International
#  Union of Crystallography as the standard for data archiving and 
#  transmission.
#
#  For information on this file format, follow the CIF links at
#  http://www.iucr.org
##########################################################################

data_Li2MnO2
_symmetry_space_group_name_H-M          'P 1'
_cell_length_a                          5.55330381564
_cell_length_b                          5.55330378249
_cell_length_c                          5.55330445677
_cell_angle_alpha                       141.688027605
_cell_angle_beta                        148.060277328
_cell_angle_gamma                       50.7095408231
_chemical_name_systematic               'Generated by pymatgen'
_symmetry_Int_Tables_number             1
_chemical_formula_structural            Li2MnO2
_chemical_formula_sum                   'Li2 Mn1 O2'
_cell_volume                            55.8891052764
_cell_formula_units_Z                   1
loop_
  _symmetry_equiv_pos_site_id
  _symmetry_equiv_pos_as_xyz
   1  'x, y, z'
 
loop_
  _atom_site_type_symbol
  _atom_site_label
  _atom_site_symmetry_multiplicity
  _atom_site_fract_x
  _atom_site_fract_y
  _atom_site_fract_z
  _atom_site_attached_hydrogens
  _atom_site_B_iso_or_equiv
  _atom_site_occupancy
   Li  Li1  1  0.275962  0.775962  0.500000  0  .  1
   Li  Li2  1  0.724038  0.224038  0.500000  0  .  1
   Mn  Mn3  1  0.000000  0.500000  0.500000  0  .  1
   O  O4  1  0.353505  0.353505  1.000000  0  .  1
   O  O5  1  0.646495  0.646495  0.000000  0  .  1
 
