#\#CIF1.1
##########################################################################
#               Crystallographic Information Format file 
#               Produced by PyCifRW module
# 
#  This is a CIF file.  CIF has been adopted by the International
#  Union of Crystallography as the standard for data archiving and 
#  transmission.
#
#  For information on this file format, follow the CIF links at
#  http://www.iucr.org
##########################################################################

data_Li2Mn5O10
_symmetry_space_group_name_H-M          'P 1'
_cell_length_a                          5.06791430856
_cell_length_b                          5.19232753149
_cell_length_c                          7.93822944266
_cell_angle_alpha                       112.532128808
_cell_angle_beta                        100.321890298
_cell_angle_gamma                       99.8690366792
_chemical_name_systematic               'Generated by pymatgen'
_symmetry_Int_Tables_number             1
_chemical_formula_structural            Li2Mn5O10
_chemical_formula_sum                   'Li2 Mn5 O10'
_cell_volume                            183.077395168
_cell_formula_units_Z                   1
loop_
  _symmetry_equiv_pos_site_id
  _symmetry_equiv_pos_as_xyz
   1  'x, y, z'
 
loop_
  _atom_site_type_symbol
  _atom_site_label
  _atom_site_symmetry_multiplicity
  _atom_site_fract_x
  _atom_site_fract_y
  _atom_site_fract_z
  _atom_site_attached_hydrogens
  _atom_site_B_iso_or_equiv
  _atom_site_occupancy
   Li  Li1  1  0.238061  0.936887  0.429896  0  .  1
   Li  Li2  1  0.761939  0.063113  0.570104  0  .  1
   Mn  Mn3  1  0.110251  0.692522  0.690811  0  .  1
   Mn  Mn4  1  0.000000  0.500000  0.000000  0  .  1
   Mn  Mn5  1  0.689816  0.880141  0.889746  0  .  1
   Mn  Mn6  1  0.310184  0.119859  0.110254  0  .  1
   Mn  Mn7  1  0.889749  0.307478  0.309189  0  .  1
   O  O8  1  0.041604  0.069609  0.861706  0  .  1
   O  O9  1  0.090176  0.303888  0.529543  0  .  1
   O  O10  1  0.341782  0.732823  0.937855  0  .  1
   O  O11  1  0.206144  0.465271  0.232294  0  .  1
   O  O12  1  0.459118  0.879694  0.676973  0  .  1
   O  O13  1  0.540882  0.120306  0.323027  0  .  1
   O  O14  1  0.793856  0.534729  0.767706  0  .  1
   O  O15  1  0.658218  0.267177  0.062145  0  .  1
   O  O16  1  0.909824  0.696112  0.470457  0  .  1
   O  O17  1  0.958396  0.930391  0.138294  0  .  1
 
