#\#CIF1.1
##########################################################################
#               Crystallographic Information Format file 
#               Produced by PyCifRW module
# 
#  This is a CIF file.  CIF has been adopted by the International
#  Union of Crystallography as the standard for data archiving and 
#  transmission.
#
#  For information on this file format, follow the CIF links at
#  http://www.iucr.org
##########################################################################

data_Li2MnO3
_symmetry_space_group_name_H-M          'P 1'
_cell_length_a                          5.00387493274
_cell_length_b                          5.00387493746
_cell_length_c                          5.09222467543
_cell_angle_alpha                       99.6101717369
_cell_angle_beta                        99.6101717617
_cell_angle_gamma                       119.907044605
_chemical_name_systematic               'Generated by pymatgen'
_symmetry_Int_Tables_number             1
_chemical_formula_structural            Li2MnO3
_chemical_formula_sum                   'Li4 Mn2 O6'
_cell_volume                            104.199794709
_cell_formula_units_Z                   2
loop_
  _symmetry_equiv_pos_site_id
  _symmetry_equiv_pos_as_xyz
   1  'x, y, z'
 
loop_
  _atom_site_type_symbol
  _atom_site_label
  _atom_site_symmetry_multiplicity
  _atom_site_fract_x
  _atom_site_fract_y
  _atom_site_fract_z
  _atom_site_attached_hydrogens
  _atom_site_B_iso_or_equiv
  _atom_site_occupancy
   Li  Li1  1  0.338869  0.661131  0.500000  0  .  1
   Li  Li2  1  0.661131  0.338869  0.500000  0  .  1
   Li  Li3  1  0.500000  0.500000  0.000000  0  .  1
   Li  Li4  1  0.000000  0.000000  0.500000  0  .  1
   O  O5  1  0.067168  0.424495  0.776065  0  .  1
   O  O6  1  0.575505  0.932832  0.223935  0  .  1
   O  O7  1  0.780905  0.780905  0.772337  0  .  1
   O  O8  1  0.219095  0.219095  0.227663  0  .  1
   O  O9  1  0.424495  0.067168  0.776065  0  .  1
   O  O10  1  0.932832  0.575505  0.223935  0  .  1
   Mn  Mn11  1  0.167106  0.832894  0.000000  0  .  1
   Mn  Mn12  1  0.832894  0.167106  0.000000  0  .  1
 
