#\#CIF1.1
##########################################################################
#               Crystallographic Information Format file 
#               Produced by PyCifRW module
# 
#  This is a CIF file.  CIF has been adopted by the International
#  Union of Crystallography as the standard for data archiving and 
#  transmission.
#
#  For information on this file format, follow the CIF links at
#  http://www.iucr.org
##########################################################################

data_Li2Ni2S3
_symmetry_space_group_name_H-M          'P 1'
_cell_length_a                          8.8388849026
_cell_length_b                          8.8388849026
_cell_length_c                          6.40988469592
_cell_angle_alpha                       69.7277470955
_cell_angle_beta                        69.7277470955
_cell_angle_gamma                       84.6845177052
_chemical_name_systematic               'Generated by pymatgen'
_symmetry_Int_Tables_number             1
_chemical_formula_structural            Li2Ni2S3
_chemical_formula_sum                   'Li8 Ni8 S12'
_cell_volume                            440.446018129
_cell_formula_units_Z                   4
loop_
  _symmetry_equiv_pos_site_id
  _symmetry_equiv_pos_as_xyz
   1  'x, y, z'
 
loop_
  _atom_site_type_symbol
  _atom_site_label
  _atom_site_symmetry_multiplicity
  _atom_site_fract_x
  _atom_site_fract_y
  _atom_site_fract_z
  _atom_site_attached_hydrogens
  _atom_site_B_iso_or_equiv
  _atom_site_occupancy
   Li  Li1  1  0.959407  0.796735  0.077806  0  .  1
   Li  Li2  1  0.796735  0.959407  0.577806  0  .  1
   Li  Li3  1  0.720200  0.279800  0.250000  0  .  1
   Li  Li4  1  0.437003  0.562997  0.250000  0  .  1
   Li  Li5  1  0.562997  0.437003  0.750000  0  .  1
   Li  Li6  1  0.279800  0.720200  0.750000  0  .  1
   Li  Li7  1  0.203265  0.040593  0.422194  0  .  1
   Li  Li8  1  0.040593  0.203265  0.922194  0  .  1
   Ni  Ni9  1  0.615152  0.782866  0.391946  0  .  1
   Ni  Ni10  1  0.922895  0.438701  0.396926  0  .  1
   Ni  Ni11  1  0.782866  0.615152  0.891946  0  .  1
   Ni  Ni12  1  0.438701  0.922895  0.896926  0  .  1
   Ni  Ni13  1  0.561299  0.077105  0.103074  0  .  1
   Ni  Ni14  1  0.217134  0.384848  0.108054  0  .  1
   Ni  Ni15  1  0.077105  0.561299  0.603074  0  .  1
   Ni  Ni16  1  0.384848  0.217134  0.608054  0  .  1
   S  S17  1  0.727979  0.578345  0.270336  0  .  1
   S  S18  1  0.408164  0.853056  0.274430  0  .  1
   S  S19  1  0.578345  0.727979  0.770335  0  .  1
   S  S20  1  0.853056  0.408164  0.774430  0  .  1
   S  S21  1  0.780576  0.003137  0.187608  0  .  1
   S  S22  1  0.219424  0.996863  0.812392  0  .  1
   S  S23  1  0.146944  0.591836  0.225570  0  .  1
   S  S24  1  0.421655  0.272021  0.229664  0  .  1
   S  S25  1  0.003137  0.780576  0.687608  0  .  1
   S  S26  1  0.591836  0.146944  0.725570  0  .  1
   S  S27  1  0.272021  0.421655  0.729665  0  .  1
   S  S28  1  0.996863  0.219424  0.312392  0  .  1
 
