#\#CIF1.1
##########################################################################
#               Crystallographic Information Format file 
#               Produced by PyCifRW module
# 
#  This is a CIF file.  CIF has been adopted by the International
#  Union of Crystallography as the standard for data archiving and 
#  transmission.
#
#  For information on this file format, follow the CIF links at
#  http://www.iucr.org
##########################################################################

data_Li2NiO3
_symmetry_space_group_name_H-M          'P 1'
_cell_length_a                          4.92695698854
_cell_length_b                          4.92697895888
_cell_length_c                          9.56880801527
_cell_angle_alpha                       85.047624659
_cell_angle_beta                        80.0581105252
_cell_angle_gamma                       59.9994003821
_chemical_name_systematic               'Generated by pymatgen'
_symmetry_Int_Tables_number             1
_chemical_formula_structural            Li2NiO3
_chemical_formula_sum                   'Li8 Ni4 O12'
_cell_volume                            198.140941722
_cell_formula_units_Z                   4
loop_
  _symmetry_equiv_pos_site_id
  _symmetry_equiv_pos_as_xyz
   1  'x, y, z'
 
loop_
  _atom_site_type_symbol
  _atom_site_label
  _atom_site_symmetry_multiplicity
  _atom_site_fract_x
  _atom_site_fract_y
  _atom_site_fract_z
  _atom_site_attached_hydrogens
  _atom_site_B_iso_or_equiv
  _atom_site_occupancy
   Li  Li1  1  0.680179  0.161485  0.500269  0  .  1
   Li  Li2  1  0.841729  0.838487  0.000318  0  .  1
   Li  Li3  1  0.999905  0.499980  0.500038  0  .  1
   Li  Li4  1  0.915900  0.168218  0.749995  0  .  1
   Li  Li5  1  0.084118  0.831751  0.249997  0  .  1
   Li  Li6  1  0.158329  0.161477  0.999712  0  .  1
   Li  Li7  1  0.500117  0.499971  0.999959  0  .  1
   Li  Li8  1  0.319803  0.838461  0.499691  0  .  1
   Ni  Ni9  1  0.249956  0.500083  0.750011  0  .  1
   Ni  Ni10  1  0.583071  0.833890  0.750008  0  .  1
   Ni  Ni11  1  0.416920  0.166134  0.249988  0  .  1
   Ni  Ni12  1  0.750036  0.499937  0.249985  0  .  1
   O  O13  1  0.046708  0.190857  0.362841  0  .  1
   O  O14  1  0.120507  0.473373  0.138626  0  .  1
   O  O15  1  0.313034  0.167630  0.638647  0  .  1
   O  O16  1  0.406024  0.473433  0.361427  0  .  1
   O  O17  1  0.519343  0.167628  0.861306  0  .  1
   O  O18  1  0.237622  0.809131  0.862793  0  .  1
   O  O19  1  0.762358  0.190896  0.137215  0  .  1
   O  O20  1  0.480663  0.832401  0.138701  0  .  1
   O  O21  1  0.593947  0.526595  0.638575  0  .  1
   O  O22  1  0.686952  0.832396  0.361357  0  .  1
   O  O23  1  0.879498  0.526633  0.861383  0  .  1
   O  O24  1  0.953281  0.809154  0.637161  0  .  1
 
