#\#CIF1.1
##########################################################################
#               Crystallographic Information Format file 
#               Produced by PyCifRW module
# 
#  This is a CIF file.  CIF has been adopted by the International
#  Union of Crystallography as the standard for data archiving and 
#  transmission.
#
#  For information on this file format, follow the CIF links at
#  http://www.iucr.org
##########################################################################

data_Li2Ni5O7
_symmetry_space_group_name_H-M          'P 1'
_cell_length_a                          6.60217637652
_cell_length_b                          4.10768638291
_cell_length_c                          5.08612739869
_cell_angle_alpha                       113.820474721
_cell_angle_beta                        97.9063144542
_cell_angle_gamma                       89.9924119711
_chemical_name_systematic               'Generated by pymatgen'
_symmetry_Int_Tables_number             1
_chemical_formula_structural            Li2Ni5O7
_chemical_formula_sum                   'Li2 Ni5 O7'
_cell_volume                            124.75076426
_cell_formula_units_Z                   1
loop_
  _symmetry_equiv_pos_site_id
  _symmetry_equiv_pos_as_xyz
   1  'x, y, z'
 
loop_
  _atom_site_type_symbol
  _atom_site_label
  _atom_site_symmetry_multiplicity
  _atom_site_fract_x
  _atom_site_fract_y
  _atom_site_fract_z
  _atom_site_attached_hydrogens
  _atom_site_B_iso_or_equiv
  _atom_site_occupancy
   Li  Li1  1  0.139214  0.718137  0.436802  0  .  1
   Li  Li2  1  0.576714  0.852093  0.704408  0  .  1
   Ni  Ni3  1  0.001777  0.002706  0.005788  0  .  1
   Ni  Ni4  1  0.287737  0.424657  0.849896  0  .  1
   Ni  Ni5  1  0.427873  0.146086  0.292614  0  .  1
   Ni  Ni6  1  0.857534  0.285835  0.572104  0  .  1
   Ni  Ni7  1  0.713798  0.568887  0.137986  0  .  1
   O  O8  1  0.995752  0.493942  0.988302  0  .  1
   O  O9  1  0.145599  0.217152  0.434745  0  .  1
   O  O10  1  0.281788  0.940921  0.882301  0  .  1
   O  O11  1  0.569590  0.353998  0.708480  0  .  1
   O  O12  1  0.433534  0.629472  0.259400  0  .  1
   O  O13  1  0.857532  0.785516  0.571471  0  .  1
   O  O14  1  0.719764  0.077806  0.155923  0  .  1
 
