#\#CIF1.1
##########################################################################
#               Crystallographic Information Format file 
#               Produced by PyCifRW module
# 
#  This is a CIF file.  CIF has been adopted by the International
#  Union of Crystallography as the standard for data archiving and 
#  transmission.
#
#  For information on this file format, follow the CIF links at
#  http://www.iucr.org
##########################################################################

data_Li2Ti3O6
_symmetry_space_group_name_H-M          'P 1'
_cell_length_a                          5.27457097186
_cell_length_b                          5.09515403035
_cell_length_c                          5.10236681835
_cell_angle_alpha                       59.9531533903
_cell_angle_beta                        71.4157795389
_cell_angle_gamma                       80.8177944578
_chemical_name_systematic               'Generated by pymatgen'
_symmetry_Int_Tables_number             1
_chemical_formula_structural            Li2Ti3O6
_chemical_formula_sum                   'Li2 Ti3 O6'
_cell_volume                            112.508160649
_cell_formula_units_Z                   1
loop_
  _symmetry_equiv_pos_site_id
  _symmetry_equiv_pos_as_xyz
   1  'x, y, z'
 
loop_
  _atom_site_type_symbol
  _atom_site_label
  _atom_site_symmetry_multiplicity
  _atom_site_fract_x
  _atom_site_fract_y
  _atom_site_fract_z
  _atom_site_attached_hydrogens
  _atom_site_B_iso_or_equiv
  _atom_site_occupancy
   Li  Li1  1  0.500000  0.334747  0.832627  0  .  1
   Li  Li2  1  0.500000  0.665253  0.167373  0  .  1
   Ti  Ti3  1  0.000000  0.674948  0.662527  0  .  1
   Ti  Ti4  1  1.000000  0.325052  0.337473  0  .  1
   Ti  Ti5  1  0.000000  0.000000  0.000000  0  .  1
   O  O6  1  0.773436  1.000000  0.751681  0  .  1
   O  O7  1  0.778775  0.657300  0.407110  0  .  1
   O  O8  1  0.778775  0.342700  0.064410  0  .  1
   O  O9  1  0.221225  0.657300  0.935590  0  .  1
   O  O10  1  0.221225  0.342700  0.592890  0  .  1
   O  O11  1  0.226564  0.000000  0.248319  0  .  1
 
