#\#CIF1.1
##########################################################################
#               Crystallographic Information Format file 
#               Produced by PyCifRW module
# 
#  This is a CIF file.  CIF has been adopted by the International
#  Union of Crystallography as the standard for data archiving and 
#  transmission.
#
#  For information on this file format, follow the CIF links at
#  http://www.iucr.org
##########################################################################

data_Li2TiO3
_symmetry_space_group_name_H-M          'P 1'
_cell_length_a                          5.09996354365
_cell_length_b                          5.10832764903
_cell_length_c                          9.83459499032
_cell_angle_alpha                       84.9258184907
_cell_angle_beta                        79.7943952317
_cell_angle_gamma                       60.054148241
_chemical_name_systematic               'Generated by pymatgen'
_symmetry_Int_Tables_number             1
_chemical_formula_structural            Li2TiO3
_chemical_formula_sum                   'Li8 Ti4 O12'
_cell_volume                            218.495960196
_cell_formula_units_Z                   4
loop_
  _symmetry_equiv_pos_site_id
  _symmetry_equiv_pos_as_xyz
   1  'x, y, z'
 
loop_
  _atom_site_type_symbol
  _atom_site_label
  _atom_site_symmetry_multiplicity
  _atom_site_fract_x
  _atom_site_fract_y
  _atom_site_fract_z
  _atom_site_attached_hydrogens
  _atom_site_B_iso_or_equiv
  _atom_site_occupancy
   Li  Li1  1  0.839991  0.840344  0.999623  0  .  1
   Li  Li2  1  0.319665  0.840344  0.500377  0  .  1
   Li  Li3  1  0.160009  0.159656  0.000377  0  .  1
   Li  Li4  1  0.680335  0.159656  0.499623  0  .  1
   Li  Li5  1  0.000000  0.500000  0.500000  0  .  1
   Li  Li6  1  0.500000  0.500000  0.000000  0  .  1
   Li  Li7  1  0.084342  0.831317  0.250000  0  .  1
   Li  Li8  1  0.915658  0.168683  0.750000  0  .  1
   O  O9  1  0.954660  0.812107  0.634436  0  .  1
   O  O10  1  0.122951  0.472972  0.136903  0  .  1
   O  O11  1  0.233233  0.812107  0.865564  0  .  1
   O  O12  1  0.045340  0.187893  0.365564  0  .  1
   O  O13  1  0.479236  0.831006  0.136962  0  .  1
   O  O14  1  0.404077  0.472972  0.363097  0  .  1
   O  O15  1  0.877049  0.527028  0.863097  0  .  1
   O  O16  1  0.595923  0.527028  0.636903  0  .  1
   O  O17  1  0.310242  0.168994  0.636962  0  .  1
   O  O18  1  0.689758  0.831006  0.363038  0  .  1
   O  O19  1  0.520764  0.168994  0.863038  0  .  1
   O  O20  1  0.766767  0.187893  0.134436  0  .  1
   Ti  Ti21  1  0.417415  0.165170  0.250000  0  .  1
   Ti  Ti22  1  0.250394  0.499212  0.750000  0  .  1
   Ti  Ti23  1  0.749606  0.500788  0.250000  0  .  1
   Ti  Ti24  1  0.582585  0.834830  0.750000  0  .  1
 
