#\#CIF1.1
##########################################################################
#               Crystallographic Information Format file 
#               Produced by PyCifRW module
# 
#  This is a CIF file.  CIF has been adopted by the International
#  Union of Crystallography as the standard for data archiving and 
#  transmission.
#
#  For information on this file format, follow the CIF links at
#  http://www.iucr.org
##########################################################################

data_Li2Ti4O9
_symmetry_space_group_name_H-M          'P 1'
_cell_length_a                          5.07312061
_cell_length_b                          5.07312613613
_cell_length_c                          13.97506252
_cell_angle_alpha                       89.999741476
_cell_angle_beta                        90.0000336515
_cell_angle_gamma                       120.000019662
_chemical_name_systematic               'Generated by pymatgen'
_symmetry_Int_Tables_number             1
_chemical_formula_structural            Li2Ti4O9
_chemical_formula_sum                   'Li4 Ti8 O18'
_cell_volume                            311.483576849
_cell_formula_units_Z                   2
loop_
  _symmetry_equiv_pos_site_id
  _symmetry_equiv_pos_as_xyz
   1  'x, y, z'
 
loop_
  _atom_site_type_symbol
  _atom_site_label
  _atom_site_symmetry_multiplicity
  _atom_site_fract_x
  _atom_site_fract_y
  _atom_site_fract_z
  _atom_site_attached_hydrogens
  _atom_site_B_iso_or_equiv
  _atom_site_occupancy
   Li  Li1  1  0.999984  0.000006  0.144186  0  .  1
   Li  Li2  1  0.999985  0.999995  0.355816  0  .  1
   Li  Li3  1  0.999999  0.000002  0.644185  0  .  1
   Li  Li4  1  0.999995  0.000002  0.855817  0  .  1
   Ti  Ti5  1  0.333327  0.666676  0.024851  0  .  1
   Ti  Ti6  1  0.333347  0.666678  0.312394  0  .  1
   Ti  Ti7  1  0.333322  0.666666  0.524852  0  .  1
   Ti  Ti8  1  0.333317  0.666648  0.812392  0  .  1
   Ti  Ti9  1  0.666667  0.333323  0.187606  0  .  1
   Ti  Ti10  1  0.666665  0.333327  0.687609  0  .  1
   Ti  Ti11  1  0.666654  0.333333  0.475149  0  .  1
   Ti  Ti12  1  0.666659  0.333343  0.975147  0  .  1
   O  O13  1  0.999987  0.657946  0.750000  0  .  1
   O  O14  1  0.024851  0.640892  0.418644  0  .  1
   O  O15  1  0.359109  0.975139  0.918644  0  .  1
   O  O16  1  -0.000003  0.342063  0.250001  0  .  1
   O  O17  1  0.024860  0.383971  0.918643  0  .  1
   O  O18  1  0.359091  0.383966  0.418645  0  .  1
   O  O19  1  0.342042  0.342047  0.750001  0  .  1
   O  O20  1  0.383969  0.359114  0.081353  0  .  1
   O  O21  1  0.616023  0.975129  0.418644  0  .  1
   O  O22  1  0.342050  0.000003  0.250002  0  .  1
   O  O23  1  0.383966  0.024864  0.581356  0  .  1
   O  O24  1  0.616024  0.640901  0.918644  0  .  1
   O  O25  1  0.657938  0.657942  0.249999  0  .  1
   O  O26  1  0.640884  0.616026  0.581355  0  .  1
   O  O27  1  0.975128  0.616030  0.081353  0  .  1
   O  O28  1  0.640889  0.024872  0.081356  0  .  1
   O  O29  1  0.657944  0.000000  0.749998  0  .  1
   O  O30  1  0.975124  0.359102  0.581356  0  .  1
 
