#\#CIF1.1
##########################################################################
#               Crystallographic Information Format file 
#               Produced by PyCifRW module
# 
#  This is a CIF file.  CIF has been adopted by the International
#  Union of Crystallography as the standard for data archiving and 
#  transmission.
#
#  For information on this file format, follow the CIF links at
#  http://www.iucr.org
##########################################################################

data_Li2V18O39
_symmetry_space_group_name_H-M          'P 1'
_cell_length_a                          3.79764683638
_cell_length_b                          11.2392779675
_cell_length_c                          17.3525453117
_cell_angle_alpha                       105.113853256
_cell_angle_beta                        90.0327320983
_cell_angle_gamma                       99.7502694105
_chemical_name_systematic               'Generated by pymatgen'
_symmetry_Int_Tables_number             1
_chemical_formula_structural            Li2V18O39
_chemical_formula_sum                   'Li2 V18 O39'
_cell_volume                            703.928198897
_cell_formula_units_Z                   1
loop_
  _symmetry_equiv_pos_site_id
  _symmetry_equiv_pos_as_xyz
   1  'x, y, z'
 
loop_
  _atom_site_type_symbol
  _atom_site_label
  _atom_site_symmetry_multiplicity
  _atom_site_fract_x
  _atom_site_fract_y
  _atom_site_fract_z
  _atom_site_attached_hydrogens
  _atom_site_B_iso_or_equiv
  _atom_site_occupancy
   Li  Li1  1  0.745007  0.472814  0.340656  0  .  1
   Li  Li2  1  0.264329  0.528548  0.660204  0  .  1
   V  V3  1  0.797507  0.597286  0.551601  0  .  1
   V  V4  1  0.640268  0.274986  0.653301  0  .  1
   V  V5  1  0.199469  0.403544  0.449767  0  .  1
   V  V6  1  0.142382  0.239312  0.235819  0  .  1
   V  V7  1  0.446498  0.897304  0.900935  0  .  1
   V  V8  1  0.308099  0.616111  0.977386  0  .  1
   V  V9  1  0.068227  0.132705  0.529889  0  .  1
   V  V10  1  0.413892  0.823071  0.178461  0  .  1
   V  V11  1  0.886748  0.759708  0.765345  0  .  1
   V  V12  1  0.023319  0.043207  0.691960  0  .  1
   V  V13  1  0.589671  0.176877  0.822123  0  .  1
   V  V14  1  0.739752  0.478648  0.850219  0  .  1
   V  V15  1  0.979595  0.956405  0.308909  0  .  1
   V  V16  1  0.551158  0.102790  0.100293  0  .  1
   V  V17  1  0.364066  0.725546  0.347111  0  .  1
   V  V18  1  0.693079  0.383186  0.022974  0  .  1
   V  V19  1  0.938342  0.867331  0.470993  0  .  1
   V  V20  1  0.264827  0.520878  0.149894  0  .  1
   O  O21  1  0.626847  0.251771  0.054572  0  .  1
   O  O22  1  0.138105  0.274927  0.482918  0  .  1
   O  O23  1  0.797535  0.595802  0.804483  0  .  1
   O  O24  1  0.008117  0.013030  0.427938  0  .  1
   O  O25  1  0.060158  0.122847  0.119520  0  .  1
   O  O26  1  0.917675  0.832603  0.201235  0  .  1
   O  O27  1  0.383008  0.773819  0.782033  0  .  1
   O  O28  1  0.757933  0.512099  0.127559  0  .  1
   O  O29  1  0.607624  0.222801  0.214858  0  .  1
   O  O30  1  0.576584  0.149624  0.542308  0  .  1
   O  O31  1  0.526065  0.051015  0.859741  0  .  1
   O  O32  1  0.861986  0.724718  0.517008  0  .  1
   O  O33  1  0.162167  0.344273  0.333510  0  .  1
   O  O34  1  0.085350  0.167442  0.799355  0  .  1
   O  O35  1  0.115549  0.225993  0.646418  0  .  1
   O  O36  1  0.294416  0.587511  0.368925  0  .  1
   O  O37  1  0.954772  0.907863  0.719764  0  .  1
   O  O38  1  0.995296  0.987141  0.572873  0  .  1
   O  O39  1  0.346796  0.690478  0.093368  0  .  1
   O  O40  1  0.888490  0.774592  0.354190  0  .  1
   O  O41  1  0.671456  0.340725  0.769563  0  .  1
   O  O42  1  0.476517  0.951017  0.142042  0  .  1
   O  O43  1  0.551358  0.098805  0.703656  0  .  1
   O  O44  1  0.451477  0.900163  0.297128  0  .  1
   O  O45  1  0.778993  0.557476  0.966926  0  .  1
   O  O46  1  0.500643  0.000150  0.000624  0  .  1
   O  O47  1  0.426665  0.850319  0.458368  0  .  1
   O  O48  1  0.371942  0.747540  0.946287  0  .  1
   O  O49  1  0.046767  0.092054  0.281477  0  .  1
   O  O50  1  0.331898  0.659103  0.230569  0  .  1
   O  O51  1  0.656698  0.310863  0.906961  0  .  1
   O  O52  1  0.271478  0.543381  0.548424  0  .  1
   O  O53  1  0.711244  0.412150  0.630866  0  .  1
   O  O54  1  0.823707  0.653235  0.664181  0  .  1
   O  O55  1  0.204616  0.404030  0.195203  0  .  1
   O  O56  1  0.727228  0.456042  0.451515  0  .  1
   O  O57  1  0.243886  0.487781  0.871954  0  .  1
   O  O58  1  0.222563  0.442459  0.033089  0  .  1
   O  O59  1  0.937508  0.877384  0.882259  0  .  1
 
