#\#CIF1.1
##########################################################################
#               Crystallographic Information Format file 
#               Produced by PyCifRW module
# 
#  This is a CIF file.  CIF has been adopted by the International
#  Union of Crystallography as the standard for data archiving and 
#  transmission.
#
#  For information on this file format, follow the CIF links at
#  http://www.iucr.org
##########################################################################

data_Li2VO3
_symmetry_space_group_name_H-M          'P 1'
_cell_length_a                          6.45989884546
_cell_length_b                          5.00016421948
_cell_length_c                          9.78371514029
_cell_angle_alpha                       86.8434873296
_cell_angle_beta                        42.4863652283
_cell_angle_gamma                       51.5787229576
_chemical_name_systematic               'Generated by pymatgen'
_symmetry_Int_Tables_number             1
_chemical_formula_structural            Li2VO3
_chemical_formula_sum                   'Li4 V2 O6'
_cell_volume                            108.296160131
_cell_formula_units_Z                   2
loop_
  _symmetry_equiv_pos_site_id
  _symmetry_equiv_pos_as_xyz
   1  'x, y, z'
 
loop_
  _atom_site_type_symbol
  _atom_site_label
  _atom_site_symmetry_multiplicity
  _atom_site_fract_x
  _atom_site_fract_y
  _atom_site_fract_z
  _atom_site_attached_hydrogens
  _atom_site_B_iso_or_equiv
  _atom_site_occupancy
   Li  Li1  1  0.997988  0.502189  0.000951  0  .  1
   Li  Li2  1  0.499153  0.001035  0.500058  0  .  1
   Li  Li3  1  0.313679  0.507864  0.341587  0  .  1
   Li  Li4  1  0.678686  0.500047  0.661238  0  .  1
   V  V5  1  0.147130  0.014206  0.175446  0  .  1
   V  V6  1  0.851327  0.987703  0.824871  0  .  1
   O  O7  1  0.282814  0.207786  0.223220  0  .  1
   O  O8  1  0.715367  0.794422  0.777213  0  .  1
   O  O9  1  0.573211  0.282247  0.576318  0  .  1
   O  O10  1  0.131137  0.731831  0.071439  0  .  1
   O  O11  1  0.425459  0.719408  0.423985  0  .  1
   O  O12  1  0.867697  0.269751  0.928804  0  .  1
 
