#\#CIF1.1
##########################################################################
#               Crystallographic Information Format file 
#               Produced by PyCifRW module
# 
#  This is a CIF file.  CIF has been adopted by the International
#  Union of Crystallography as the standard for data archiving and 
#  transmission.
#
#  For information on this file format, follow the CIF links at
#  http://www.iucr.org
##########################################################################

data_Li2V6O13
_symmetry_space_group_name_H-M          'P 1'
_cell_length_a                          3.71563123165
_cell_length_b                          6.32695602206
_cell_length_c                          11.1266635249
_cell_angle_alpha                       100.25531481
_cell_angle_beta                        89.9994794275
_cell_angle_gamma                       107.072494704
_chemical_name_systematic               'Generated by pymatgen'
_symmetry_Int_Tables_number             1
_chemical_formula_structural            Li2V6O13
_chemical_formula_sum                   'Li2 V6 O13'
_cell_volume                            245.671541522
_cell_formula_units_Z                   1
loop_
  _symmetry_equiv_pos_site_id
  _symmetry_equiv_pos_as_xyz
   1  'x, y, z'
 
loop_
  _atom_site_type_symbol
  _atom_site_label
  _atom_site_symmetry_multiplicity
  _atom_site_fract_x
  _atom_site_fract_y
  _atom_site_fract_z
  _atom_site_attached_hydrogens
  _atom_site_B_iso_or_equiv
  _atom_site_occupancy
   Li  Li1  1  0.094367  0.188609  0.142913  0  .  1
   Li  Li2  1  0.905631  0.811386  0.857084  0  .  1
   V  V3  1  0.645186  0.290290  0.951763  0  .  1
   V  V4  1  0.354815  0.709715  0.048241  0  .  1
   V  V5  1  0.407774  0.815707  0.392553  0  .  1
   V  V6  1  0.293916  0.587800  0.636721  0  .  1
   V  V7  1  0.592225  0.184293  0.607448  0  .  1
   V  V8  1  0.706084  0.412196  0.363277  0  .  1
   O  O9  1  0.432433  0.864821  0.571969  0  .  1
   O  O10  1  0.818163  0.636372  0.992527  0  .  1
   O  O11  1  0.758784  0.517510  0.594720  0  .  1
   O  O12  1  0.123050  0.246006  0.623358  0  .  1
   O  O13  1  0.389582  0.779244  0.202549  0  .  1
   O  O14  1  0.654589  0.308985  0.211856  0  .  1
   O  O15  1  0.610421  0.220763  0.797455  0  .  1
   O  O16  1  0.181838  0.363635  0.007476  0  .  1
   O  O17  1  0.499998  0.999999  0.999999  0  .  1
   O  O18  1  0.241216  0.482486  0.405278  0  .  1
   O  O19  1  0.567567  0.135177  0.428030  0  .  1
   O  O20  1  0.345413  0.691016  0.788140  0  .  1
   O  O21  1  0.876948  0.753990  0.376644  0  .  1
 
