#\#CIF1.1
##########################################################################
#               Crystallographic Information Format file 
#               Produced by PyCifRW module
# 
#  This is a CIF file.  CIF has been adopted by the International
#  Union of Crystallography as the standard for data archiving and 
#  transmission.
#
#  For information on this file format, follow the CIF links at
#  http://www.iucr.org
##########################################################################

data_Li2VO2
_symmetry_space_group_name_H-M          'P 1'
_cell_length_a                          3.23017152
_cell_length_b                          3.23017568673
_cell_length_c                          5.19309919
_cell_angle_alpha                       90.0000368716
_cell_angle_beta                        90.0000943214
_cell_angle_gamma                       120.000136701
_chemical_name_systematic               'Generated by pymatgen'
_symmetry_Int_Tables_number             1
_chemical_formula_structural            Li2VO2
_chemical_formula_sum                   'Li2 V1 O2'
_cell_volume                            46.9254427455
_cell_formula_units_Z                   1
loop_
  _symmetry_equiv_pos_site_id
  _symmetry_equiv_pos_as_xyz
   1  'x, y, z'
 
loop_
  _atom_site_type_symbol
  _atom_site_label
  _atom_site_symmetry_multiplicity
  _atom_site_fract_x
  _atom_site_fract_y
  _atom_site_fract_z
  _atom_site_attached_hydrogens
  _atom_site_B_iso_or_equiv
  _atom_site_occupancy
   Li  Li1  1  0.333291  0.666666  0.634647  0  .  1
   Li  Li2  1  0.666625  0.333333  0.365354  0  .  1
   V  V3  1  0.999961  0.000001  -0.000001  0  .  1
   O  O4  1  0.333295  0.666668  0.240152  0  .  1
   O  O5  1  0.666627  0.333332  0.759848  0  .  1
 
