#\#CIF1.1
##########################################################################
#               Crystallographic Information Format file 
#               Produced by PyCifRW module
# 
#  This is a CIF file.  CIF has been adopted by the International
#  Union of Crystallography as the standard for data archiving and 
#  transmission.
#
#  For information on this file format, follow the CIF links at
#  http://www.iucr.org
##########################################################################

data_Li2V3O7
_symmetry_space_group_name_H-M          'P 1'
_cell_length_a                          10.5855770601
_cell_length_b                          10.5855732904
_cell_length_c                          9.52925447021
_cell_angle_alpha                       90.0006961251
_cell_angle_beta                        89.9996914781
_cell_angle_gamma                       120.000244467
_chemical_name_systematic               'Generated by pymatgen'
_symmetry_Int_Tables_number             1
_chemical_formula_structural            Li2V3O7
_chemical_formula_sum                   'Li12 V18 O42'
_cell_volume                            924.73523929
_cell_formula_units_Z                   6
loop_
  _symmetry_equiv_pos_site_id
  _symmetry_equiv_pos_as_xyz
   1  'x, y, z'
 
loop_
  _atom_site_type_symbol
  _atom_site_label
  _atom_site_symmetry_multiplicity
  _atom_site_fract_x
  _atom_site_fract_y
  _atom_site_fract_z
  _atom_site_attached_hydrogens
  _atom_site_B_iso_or_equiv
  _atom_site_occupancy
   Li  Li1  1  0.050470  0.521224  0.335277  0  .  1
   Li  Li2  1  0.470766  0.949547  0.335272  0  .  1
   Li  Li3  1  0.333324  0.666678  0.674674  0  .  1
   Li  Li4  1  0.333320  0.666676  0.034564  0  .  1
   Li  Li5  1  0.000000  0.000006  0.108412  0  .  1
   Li  Li6  1  0.000001  0.000007  0.608411  0  .  1
   Li  Li7  1  0.478768  0.529244  0.335279  0  .  1
   Li  Li8  1  0.529232  0.478777  0.835273  0  .  1
   Li  Li9  1  0.521228  0.050475  0.835278  0  .  1
   Li  Li10  1  0.666677  0.333354  0.174674  0  .  1
   Li  Li11  1  0.666679  0.333355  0.534564  0  .  1
   Li  Li12  1  0.949530  0.470754  0.835276  0  .  1
   V  V13  1  0.126531  0.794619  0.199219  0  .  1
   V  V14  1  0.162194  0.839054  0.851235  0  .  1
   V  V15  1  0.204256  0.872915  0.505206  0  .  1
   V  V16  1  0.127086  0.331349  0.505211  0  .  1
   V  V17  1  0.160948  0.323144  0.851241  0  .  1
   V  V18  1  0.205380  0.331912  0.199224  0  .  1
   V  V19  1  0.331913  0.205384  0.699220  0  .  1
   V  V20  1  0.323139  0.160946  0.351238  0  .  1
   V  V21  1  0.668086  0.873471  0.199220  0  .  1
   V  V22  1  0.331348  0.127090  0.005207  0  .  1
   V  V23  1  0.676863  0.837808  0.851235  0  .  1
   V  V24  1  0.668654  0.795742  0.505205  0  .  1
   V  V25  1  0.795744  0.668659  0.005206  0  .  1
   V  V26  1  0.837806  0.676860  0.351233  0  .  1
   V  V27  1  0.873468  0.668086  0.699217  0  .  1
   V  V28  1  0.794619  0.126530  0.699224  0  .  1
   V  V29  1  0.839052  0.162195  0.351240  0  .  1
   V  V30  1  0.872914  0.204263  0.005211  0  .  1
   O  O31  1  0.069435  0.833267  0.670197  0  .  1
   O  O32  1  0.043467  0.726127  0.390405  0  .  1
   O  O33  1  0.173091  0.928079  0.033899  0  .  1
   O  O34  1  0.276500  0.954470  0.312461  0  .  1
   O  O35  1  0.157900  0.657252  0.160731  0  .  1
   O  O36  1  0.250797  0.747417  0.850592  0  .  1
   O  O37  1  0.045529  0.322029  0.312465  0  .  1
   O  O38  1  0.335673  0.836200  0.548618  0  .  1
   O  O39  1  0.163793  0.499483  0.548614  0  .  1
   O  O40  1  0.071921  0.245009  0.033904  0  .  1
   O  O41  1  0.252588  0.503385  0.850601  0  .  1
   O  O42  1  0.166737  0.236179  0.670201  0  .  1
   O  O43  1  0.342747  0.500649  0.160744  0  .  1
   O  O44  1  0.499348  0.842100  0.160740  0  .  1
   O  O45  1  0.273869  0.317339  0.390412  0  .  1
   O  O46  1  0.496621  0.749211  0.850590  0  .  1
   O  O47  1  0.236167  0.166730  0.170199  0  .  1
   O  O48  1  0.317344  0.273877  0.890411  0  .  1
   O  O49  1  0.500517  0.664322  0.548606  0  .  1
   O  O50  1  0.245004  0.071922  0.533901  0  .  1
   O  O51  1  0.682658  0.956533  0.390411  0  .  1
   O  O52  1  0.322027  0.045532  0.812460  0  .  1
   O  O53  1  0.763833  0.930563  0.670199  0  .  1
   O  O54  1  0.500650  0.342751  0.660740  0  .  1
   O  O55  1  0.677974  0.723505  0.312459  0  .  1
   O  O56  1  0.754995  0.826917  0.033900  0  .  1
   O  O57  1  0.503379  0.252589  0.350591  0  .  1
   O  O58  1  0.723501  0.677971  0.812461  0  .  1
   O  O59  1  0.499484  0.163805  0.048607  0  .  1
   O  O60  1  0.664326  0.500526  0.048618  0  .  1
   O  O61  1  0.826910  0.754990  0.533898  0  .  1
   O  O62  1  0.749201  0.496619  0.350592  0  .  1
   O  O63  1  0.930565  0.763832  0.170197  0  .  1
   O  O64  1  0.842099  0.499350  0.660731  0  .  1
   O  O65  1  0.657254  0.157901  0.660744  0  .  1
   O  O66  1  0.956532  0.682659  0.890405  0  .  1
   O  O67  1  0.747413  0.250796  0.350600  0  .  1
   O  O68  1  0.836206  0.335688  0.048614  0  .  1
   O  O69  1  0.726134  0.043470  0.890412  0  .  1
   O  O70  1  0.833263  0.069441  0.170200  0  .  1
   O  O71  1  0.954473  0.276501  0.812464  0  .  1
   O  O72  1  0.928080  0.173088  0.533903  0  .  1
 
