#\#CIF1.1
##########################################################################
#               Crystallographic Information Format file 
#               Produced by PyCifRW module
# 
#  This is a CIF file.  CIF has been adopted by the International
#  Union of Crystallography as the standard for data archiving and 
#  transmission.
#
#  For information on this file format, follow the CIF links at
#  http://www.iucr.org
##########################################################################

data_Li3(FeS2)2
_symmetry_space_group_name_H-M          'P 1'
_cell_length_a                          7.24059040068
_cell_length_b                          7.24059040068
_cell_length_c                          6.2306019121
_cell_angle_alpha                       90.1285427223
_cell_angle_beta                        89.8714572777
_cell_angle_gamma                       104.242515129
_chemical_name_systematic               'Generated by pymatgen'
_symmetry_Int_Tables_number             1
_chemical_formula_structural            Li3(FeS2)2
_chemical_formula_sum                   'Li6 Fe4 S8'
_cell_volume                            316.605073924
_cell_formula_units_Z                   2
loop_
  _symmetry_equiv_pos_site_id
  _symmetry_equiv_pos_as_xyz
   1  'x, y, z'
 
loop_
  _atom_site_type_symbol
  _atom_site_label
  _atom_site_symmetry_multiplicity
  _atom_site_fract_x
  _atom_site_fract_y
  _atom_site_fract_z
  _atom_site_attached_hydrogens
  _atom_site_B_iso_or_equiv
  _atom_site_occupancy
   Li  Li1  1  0.008495  0.245480  0.964285  0  .  1
   Li  Li2  1  0.754520  0.991505  0.464285  0  .  1
   Li  Li3  1  0.605587  0.605587  0.750000  0  .  1
   Li  Li4  1  0.394413  0.394413  0.250000  0  .  1
   Li  Li5  1  0.245480  0.008495  0.535715  0  .  1
   Li  Li6  1  0.991505  0.754520  0.035715  0  .  1
   Fe  Fe7  1  0.166152  0.573888  0.592419  0  .  1
   Fe  Fe8  1  0.426112  0.833848  0.092419  0  .  1
   Fe  Fe9  1  0.573888  0.166152  0.907581  0  .  1
   Fe  Fe10  1  0.833848  0.426112  0.407581  0  .  1
   S  S11  1  0.253488  0.555930  0.943425  0  .  1
   S  S12  1  0.444070  0.746512  0.443425  0  .  1
   S  S13  1  0.734056  0.937592  0.977160  0  .  1
   S  S14  1  0.062408  0.265944  0.477160  0  .  1
   S  S15  1  0.937592  0.734056  0.522840  0  .  1
   S  S16  1  0.265944  0.062408  0.022840  0  .  1
   S  S17  1  0.555930  0.253488  0.556575  0  .  1
   S  S18  1  0.746512  0.444070  0.056575  0  .  1
 
