#\#CIF1.1
##########################################################################
#               Crystallographic Information Format file 
#               Produced by PyCifRW module
# 
#  This is a CIF file.  CIF has been adopted by the International
#  Union of Crystallography as the standard for data archiving and 
#  transmission.
#
#  For information on this file format, follow the CIF links at
#  http://www.iucr.org
##########################################################################

data_Li3CuO3
_symmetry_space_group_name_H-M          'P 1'
_cell_length_a                          3.62957033
_cell_length_b                          8.79586064
_cell_length_c                          8.79586064
_cell_angle_alpha                       90.0
_cell_angle_beta                        90.0
_cell_angle_gamma                       90.0
_chemical_name_systematic               'Generated by pymatgen'
_symmetry_Int_Tables_number             1
_chemical_formula_structural            Li3CuO3
_chemical_formula_sum                   'Li12 Cu4 O12'
_cell_volume                            280.809564416
_cell_formula_units_Z                   4
loop_
  _symmetry_equiv_pos_site_id
  _symmetry_equiv_pos_as_xyz
   1  'x, y, z'
 
loop_
  _atom_site_type_symbol
  _atom_site_label
  _atom_site_symmetry_multiplicity
  _atom_site_fract_x
  _atom_site_fract_y
  _atom_site_fract_z
  _atom_site_attached_hydrogens
  _atom_site_B_iso_or_equiv
  _atom_site_occupancy
   Li  Li1  1  0.500000  0.665331  0.334669  0  .  1
   Li  Li2  1  0.000000  0.834669  0.834669  0  .  1
   Li  Li3  1  0.500000  0.334669  0.665331  0  .  1
   Li  Li4  1  0.000000  0.165331  0.165331  0  .  1
   Li  Li5  1  0.000000  0.603006  0.141493  0  .  1
   Li  Li6  1  0.500000  0.358507  0.103006  0  .  1
   Li  Li7  1  0.500000  0.641493  0.896994  0  .  1
   Li  Li8  1  0.000000  0.396994  0.858507  0  .  1
   Li  Li9  1  0.500000  0.103006  0.358507  0  .  1
   Li  Li10  1  0.500000  0.896994  0.641493  0  .  1
   Li  Li11  1  0.000000  0.141493  0.603006  0  .  1
   Li  Li12  1  0.000000  0.858507  0.396994  0  .  1
   O  O13  1  0.000000  0.398953  0.601047  0  .  1
   O  O14  1  0.500000  0.898953  0.898953  0  .  1
   O  O15  1  0.000000  0.601047  0.398953  0  .  1
   O  O16  1  0.500000  0.101047  0.101047  0  .  1
   O  O17  1  0.000000  0.177069  0.387083  0  .  1
   O  O18  1  0.500000  0.112917  0.677069  0  .  1
   O  O19  1  0.500000  0.887083  0.322931  0  .  1
   O  O20  1  0.000000  0.822931  0.612917  0  .  1
   O  O21  1  0.500000  0.677069  0.112917  0  .  1
   O  O22  1  0.500000  0.322931  0.887083  0  .  1
   O  O23  1  0.000000  0.387083  0.177069  0  .  1
   O  O24  1  0.000000  0.612917  0.822931  0  .  1
   Cu  Cu25  1  0.000000  0.613624  0.613624  0  .  1
   Cu  Cu26  1  0.500000  0.886376  0.113624  0  .  1
   Cu  Cu27  1  0.500000  0.113624  0.886376  0  .  1
   Cu  Cu28  1  0.000000  0.386376  0.386376  0  .  1
 
