#\#CIF1.1
##########################################################################
#               Crystallographic Information Format file 
#               Produced by PyCifRW module
# 
#  This is a CIF file.  CIF has been adopted by the International
#  Union of Crystallography as the standard for data archiving and 
#  transmission.
#
#  For information on this file format, follow the CIF links at
#  http://www.iucr.org
##########################################################################

data_Li3Cu5O8
_symmetry_space_group_name_H-M          'P 1'
_cell_length_a                          5.88012890396
_cell_length_b                          5.88012866446
_cell_length_c                          5.88255596794
_cell_angle_alpha                       90.0000032359
_cell_angle_beta                        60.0136559909
_cell_angle_gamma                       59.999998502
_chemical_name_systematic               'Generated by pymatgen'
_symmetry_Int_Tables_number             1
_chemical_formula_structural            Li3Cu5O8
_chemical_formula_sum                   'Li3 Cu5 O8'
_cell_volume                            143.851480439
_cell_formula_units_Z                   1
loop_
  _symmetry_equiv_pos_site_id
  _symmetry_equiv_pos_as_xyz
   1  'x, y, z'
 
loop_
  _atom_site_type_symbol
  _atom_site_label
  _atom_site_symmetry_multiplicity
  _atom_site_fract_x
  _atom_site_fract_y
  _atom_site_fract_z
  _atom_site_attached_hydrogens
  _atom_site_B_iso_or_equiv
  _atom_site_occupancy
   Li  Li1  1  0.000000  0.000000  0.500000  0  .  1
   Li  Li2  1  0.500000  0.000000  0.500000  0  .  1
   Li  Li3  1  0.500000  0.500000  0.500000  0  .  1
   Cu  Cu4  1  0.000000  0.500000  0.500000  0  .  1
   Cu  Cu5  1  0.000000  0.000000  0.000000  0  .  1
   Cu  Cu6  1  0.500000  0.000000  0.000000  0  .  1
   Cu  Cu7  1  0.000000  0.500000  0.000000  0  .  1
   Cu  Cu8  1  0.500000  0.500000  0.000000  0  .  1
   O  O9  1  0.486324  0.256838  0.770512  0  .  1
   O  O10  1  0.988228  0.261796  0.761747  0  .  1
   O  O11  1  0.500049  0.749976  0.761747  0  .  1
   O  O12  1  0.988228  0.749976  0.761747  0  .  1
   O  O13  1  0.011772  0.250024  0.238253  0  .  1
   O  O14  1  0.499951  0.250024  0.238253  0  .  1
   O  O15  1  0.011772  0.738204  0.238253  0  .  1
   O  O16  1  0.513676  0.743162  0.229488  0  .  1
 
