#\#CIF1.1
##########################################################################
#               Crystallographic Information Format file 
#               Produced by PyCifRW module
# 
#  This is a CIF file.  CIF has been adopted by the International
#  Union of Crystallography as the standard for data archiving and 
#  transmission.
#
#  For information on this file format, follow the CIF links at
#  http://www.iucr.org
##########################################################################

data_Li3CuO2
_symmetry_space_group_name_H-M          'P 1'
_cell_length_a                          6.61110966624
_cell_length_b                          7.87772813
_cell_length_c                          5.49508139895
_cell_angle_alpha                       90.0
_cell_angle_beta                        110.79569059
_cell_angle_gamma                       90.0
_chemical_name_systematic               'Generated by pymatgen'
_symmetry_Int_Tables_number             1
_chemical_formula_structural            Li3CuO2
_chemical_formula_sum                   'Li12 Cu4 O8'
_cell_volume                            267.542338835
_cell_formula_units_Z                   4
loop_
  _symmetry_equiv_pos_site_id
  _symmetry_equiv_pos_as_xyz
   1  'x, y, z'
 
loop_
  _atom_site_type_symbol
  _atom_site_label
  _atom_site_symmetry_multiplicity
  _atom_site_fract_x
  _atom_site_fract_y
  _atom_site_fract_z
  _atom_site_attached_hydrogens
  _atom_site_B_iso_or_equiv
  _atom_site_occupancy
   Li  Li1  1  0.979452  0.513569  0.729894  0  .  1
   Li  Li2  1  0.120649  0.965908  0.882207  0  .  1
   Li  Li3  1  0.185773  0.798254  0.437253  0  .  1
   Li  Li4  1  0.379351  0.465908  0.617793  0  .  1
   Li  Li5  1  0.314227  0.298254  0.062747  0  .  1
   Li  Li6  1  0.520548  0.013569  0.770106  0  .  1
   Li  Li7  1  0.479452  0.986431  0.229894  0  .  1
   Li  Li8  1  0.685773  0.701746  0.937253  0  .  1
   Li  Li9  1  0.620649  0.534092  0.382207  0  .  1
   Li  Li10  1  0.814227  0.201746  0.562747  0  .  1
   Li  Li11  1  0.879351  0.034092  0.117793  0  .  1
   Li  Li12  1  0.020548  0.486431  0.270106  0  .  1
   Cu  Cu13  1  0.182940  0.170555  0.472668  0  .  1
   Cu  Cu14  1  0.317060  0.670555  0.027332  0  .  1
   Cu  Cu15  1  0.682940  0.329445  0.972668  0  .  1
   Cu  Cu16  1  0.817060  0.829445  0.527332  0  .  1
   O  O17  1  0.138882  0.332493  0.680813  0  .  1
   O  O18  1  0.201908  0.010402  0.245667  0  .  1
   O  O19  1  0.361118  0.832492  0.819187  0  .  1
   O  O20  1  0.298092  0.510402  0.254333  0  .  1
   O  O21  1  0.701908  0.489598  0.745667  0  .  1
   O  O22  1  0.638882  0.167508  0.180813  0  .  1
   O  O23  1  0.798092  0.989598  0.754333  0  .  1
   O  O24  1  0.861118  0.667508  0.319187  0  .  1
 
