#\#CIF1.1
##########################################################################
#               Crystallographic Information Format file 
#               Produced by PyCifRW module
# 
#  This is a CIF file.  CIF has been adopted by the International
#  Union of Crystallography as the standard for data archiving and 
#  transmission.
#
#  For information on this file format, follow the CIF links at
#  http://www.iucr.org
##########################################################################

data_Li3Cu5O4
_symmetry_space_group_name_H-M          'P 1'
_cell_length_a                          7.65335323551
_cell_length_b                          6.64175249
_cell_length_c                          12.7130123744
_cell_angle_alpha                       90.0
_cell_angle_beta                        107.57200958
_cell_angle_gamma                       90.0
_chemical_name_systematic               'Generated by pymatgen'
_symmetry_Int_Tables_number             1
_chemical_formula_structural            Li3Cu5O4
_chemical_formula_sum                   'Li12 Cu20 O16'
_cell_volume                            616.069831657
_cell_formula_units_Z                   4
loop_
  _symmetry_equiv_pos_site_id
  _symmetry_equiv_pos_as_xyz
   1  'x, y, z'
 
loop_
  _atom_site_type_symbol
  _atom_site_label
  _atom_site_symmetry_multiplicity
  _atom_site_fract_x
  _atom_site_fract_y
  _atom_site_fract_z
  _atom_site_attached_hydrogens
  _atom_site_B_iso_or_equiv
  _atom_site_occupancy
   Li  Li1  1  0.067072  0.375679  0.572055  0  .  1
   Li  Li2  1  0.362932  0.060308  0.921639  0  .  1
   Li  Li3  1  0.258871  0.719390  0.564020  0  .  1
   Li  Li4  1  0.067072  0.124321  0.072055  0  .  1
   Li  Li5  1  0.362932  0.439692  0.421639  0  .  1
   Li  Li6  1  0.258871  0.780610  0.064020  0  .  1
   Li  Li7  1  0.741129  0.219390  0.935980  0  .  1
   Li  Li8  1  0.637068  0.560308  0.578361  0  .  1
   Li  Li9  1  0.932928  0.875679  0.927945  0  .  1
   Li  Li10  1  0.741129  0.280610  0.435980  0  .  1
   Li  Li11  1  0.637068  0.939692  0.078361  0  .  1
   Li  Li12  1  0.932928  0.624321  0.427945  0  .  1
   Cu  Cu13  1  0.034775  0.427978  0.912163  0  .  1
   Cu  Cu14  1  0.060350  0.671366  0.742968  0  .  1
   Cu  Cu15  1  0.034775  0.072022  0.412163  0  .  1
   Cu  Cu16  1  0.326887  0.528578  0.893327  0  .  1
   Cu  Cu17  1  0.060350  0.828634  0.242968  0  .  1
   Cu  Cu18  1  0.458675  0.441436  0.729608  0  .  1
   Cu  Cu19  1  0.326887  0.971422  0.393327  0  .  1
   Cu  Cu20  1  0.626742  0.673782  0.913402  0  .  1
   Cu  Cu21  1  0.373258  0.173782  0.586598  0  .  1
   Cu  Cu22  1  0.541325  0.941436  0.770392  0  .  1
   Cu  Cu23  1  0.458675  0.058564  0.229608  0  .  1
   Cu  Cu24  1  0.626742  0.826218  0.413402  0  .  1
   Cu  Cu25  1  0.373258  0.326218  0.086598  0  .  1
   Cu  Cu26  1  0.673113  0.028578  0.606673  0  .  1
   Cu  Cu27  1  0.541325  0.558564  0.270392  0  .  1
   Cu  Cu28  1  0.939650  0.171366  0.757032  0  .  1
   Cu  Cu29  1  0.673113  0.471422  0.106673  0  .  1
   Cu  Cu30  1  0.965225  0.927978  0.587837  0  .  1
   Cu  Cu31  1  0.939650  0.328634  0.257032  0  .  1
   Cu  Cu32  1  0.965225  0.572022  0.087837  0  .  1
   O  O33  1  0.975900  0.157063  0.905721  0  .  1
   O  O34  1  0.120123  0.691271  0.898030  0  .  1
   O  O35  1  0.975900  0.342937  0.405721  0  .  1
   O  O36  1  0.120123  0.808729  0.398030  0  .  1
   O  O37  1  0.541605  0.404463  0.881043  0  .  1
   O  O38  1  0.379837  0.454024  0.576610  0  .  1
   O  O39  1  0.620163  0.954024  0.923390  0  .  1
   O  O40  1  0.458395  0.904463  0.618957  0  .  1
   O  O41  1  0.541605  0.095537  0.381043  0  .  1
   O  O42  1  0.379837  0.045976  0.076610  0  .  1
   O  O43  1  0.620163  0.545976  0.423390  0  .  1
   O  O44  1  0.458395  0.595537  0.118957  0  .  1
   O  O45  1  0.879877  0.191271  0.601970  0  .  1
   O  O46  1  0.024100  0.657063  0.594279  0  .  1
   O  O47  1  0.879877  0.308729  0.101970  0  .  1
   O  O48  1  0.024100  0.842937  0.094279  0  .  1
 
