#\#CIF1.1
##########################################################################
#               Crystallographic Information Format file 
#               Produced by PyCifRW module
# 
#  This is a CIF file.  CIF has been adopted by the International
#  Union of Crystallography as the standard for data archiving and 
#  transmission.
#
#  For information on this file format, follow the CIF links at
#  http://www.iucr.org
##########################################################################

data_Li3FeO4
_symmetry_space_group_name_H-M          'P 1'
_cell_length_a                          5.03878403424
_cell_length_b                          10.2510972996
_cell_length_c                          9.81999796586
_cell_angle_alpha                       16.3840714288
_cell_angle_beta                        29.3126617059
_cell_angle_gamma                       33.1563573037
_chemical_name_systematic               'Generated by pymatgen'
_symmetry_Int_Tables_number             1
_chemical_formula_structural            Li3FeO4
_chemical_formula_sum                   'Li3 Fe1 O4'
_cell_volume                            70.0465240083
_cell_formula_units_Z                   1
loop_
  _symmetry_equiv_pos_site_id
  _symmetry_equiv_pos_as_xyz
   1  'x, y, z'
 
loop_
  _atom_site_type_symbol
  _atom_site_label
  _atom_site_symmetry_multiplicity
  _atom_site_fract_x
  _atom_site_fract_y
  _atom_site_fract_z
  _atom_site_attached_hydrogens
  _atom_site_B_iso_or_equiv
  _atom_site_occupancy
   Li  Li1  1  0.006552  0.994638  0.001961  0  .  1
   Li  Li2  1  0.986727  0.493137  0.010607  0  .  1
   Li  Li3  1  0.502009  0.996928  0.499620  0  .  1
   Fe  Fe4  1  0.504513  0.492353  0.506031  0  .  1
   O  O5  1  0.273762  0.990136  0.238103  0  .  1
   O  O6  1  0.191714  0.488996  0.279365  0  .  1
   O  O7  1  0.736394  0.993649  0.773299  0  .  1
   O  O8  1  0.820597  0.497388  0.727929  0  .  1
 
