#\#CIF1.1
##########################################################################
#               Crystallographic Information Format file 
#               Produced by PyCifRW module
# 
#  This is a CIF file.  CIF has been adopted by the International
#  Union of Crystallography as the standard for data archiving and 
#  transmission.
#
#  For information on this file format, follow the CIF links at
#  http://www.iucr.org
##########################################################################

data_Li3Fe7O12
_symmetry_space_group_name_H-M          'P 1'
_cell_length_a                          5.19997158539
_cell_length_b                          5.19997139719
_cell_length_c                          9.85218874983
_cell_angle_alpha                       84.5265012092
_cell_angle_beta                        95.473498544
_cell_angle_gamma                       58.434762195
_chemical_name_systematic               'Generated by pymatgen'
_symmetry_Int_Tables_number             1
_chemical_formula_structural            Li3Fe7O12
_chemical_formula_sum                   'Li3 Fe7 O12'
_cell_volume                            222.608944049
_cell_formula_units_Z                   1
loop_
  _symmetry_equiv_pos_site_id
  _symmetry_equiv_pos_as_xyz
   1  'x, y, z'
 
loop_
  _atom_site_type_symbol
  _atom_site_label
  _atom_site_symmetry_multiplicity
  _atom_site_fract_x
  _atom_site_fract_y
  _atom_site_fract_z
  _atom_site_attached_hydrogens
  _atom_site_B_iso_or_equiv
  _atom_site_occupancy
   Li  Li1  1  0.325361  0.834943  0.989206  0  .  1
   Li  Li2  1  0.834943  0.325361  0.510794  0  .  1
   Li  Li3  1  0.918113  0.918113  0.750000  0  .  1
   Fe  Fe4  1  0.080920  0.080920  0.250000  0  .  1
   Fe  Fe5  1  0.995928  0.513148  0.987437  0  .  1
   Fe  Fe6  1  0.256082  0.256082  0.750000  0  .  1
   Fe  Fe7  1  0.513148  0.995928  0.512563  0  .  1
   Fe  Fe8  1  0.416402  0.416402  0.250000  0  .  1
   Fe  Fe9  1  0.573173  0.573173  0.750000  0  .  1
   Fe  Fe10  1  0.752346  0.752346  0.250000  0  .  1
   O  O11  1  0.127643  0.358825  0.365042  0  .  1
   O  O12  1  0.358825  0.127643  0.134958  0  .  1
   O  O13  1  0.053517  0.763340  0.140386  0  .  1
   O  O14  1  0.273337  0.547468  0.866780  0  .  1
   O  O15  1  0.547468  0.273337  0.633220  0  .  1
   O  O16  1  0.231876  0.973440  0.628431  0  .  1
   O  O17  1  0.763340  0.053517  0.359614  0  .  1
   O  O18  1  0.479661  0.721958  0.361217  0  .  1
   O  O19  1  0.617672  0.848939  0.872347  0  .  1
   O  O20  1  0.973440  0.231876  0.871569  0  .  1
   O  O21  1  0.721958  0.479661  0.138783  0  .  1
   O  O22  1  0.848939  0.617672  0.627653  0  .  1
 
