#\#CIF1.1
##########################################################################
#               Crystallographic Information Format file 
#               Produced by PyCifRW module
# 
#  This is a CIF file.  CIF has been adopted by the International
#  Union of Crystallography as the standard for data archiving and 
#  transmission.
#
#  For information on this file format, follow the CIF links at
#  http://www.iucr.org
##########################################################################

data_Li3Mn5O8
_symmetry_space_group_name_H-M          'P 1'
_cell_length_a                          6.08993039899
_cell_length_b                          6.08993045643
_cell_length_c                          6.09519959471
_cell_angle_alpha                       89.999996038
_cell_angle_beta                        60.0285890169
_cell_angle_gamma                       59.9999985021
_chemical_name_systematic               'Generated by pymatgen'
_symmetry_Int_Tables_number             1
_chemical_formula_structural            Li3Mn5O8
_chemical_formula_sum                   'Li3 Mn5 O8'
_cell_volume                            159.913502285
_cell_formula_units_Z                   1
loop_
  _symmetry_equiv_pos_site_id
  _symmetry_equiv_pos_as_xyz
   1  'x, y, z'
 
loop_
  _atom_site_type_symbol
  _atom_site_label
  _atom_site_symmetry_multiplicity
  _atom_site_fract_x
  _atom_site_fract_y
  _atom_site_fract_z
  _atom_site_attached_hydrogens
  _atom_site_B_iso_or_equiv
  _atom_site_occupancy
   Li  Li1  1  0.000000  0.000000  0.500000  0  .  1
   Li  Li2  1  0.500000  0.000000  0.500000  0  .  1
   Li  Li3  1  0.500000  0.500000  0.500000  0  .  1
   Mn  Mn4  1  0.000000  0.500000  0.500000  0  .  1
   Mn  Mn5  1  0.000000  0.000000  0.000000  0  .  1
   Mn  Mn6  1  0.500000  0.000000  0.000000  0  .  1
   Mn  Mn7  1  0.000000  0.500000  0.000000  0  .  1
   Mn  Mn8  1  0.500000  0.500000  0.000000  0  .  1
   O  O9  1  0.467270  0.266365  0.799095  0  .  1
   O  O10  1  0.000460  0.249255  0.749824  0  .  1
   O  O11  1  0.499431  0.750285  0.749824  0  .  1
   O  O12  1  0.000460  0.750285  0.749824  0  .  1
   O  O13  1  0.999540  0.249715  0.250176  0  .  1
   O  O14  1  0.500569  0.249715  0.250176  0  .  1
   O  O15  1  0.999540  0.750745  0.250176  0  .  1
   O  O16  1  0.532730  0.733635  0.200905  0  .  1
 
