#\#CIF1.1
##########################################################################
#               Crystallographic Information Format file 
#               Produced by PyCifRW module
# 
#  This is a CIF file.  CIF has been adopted by the International
#  Union of Crystallography as the standard for data archiving and 
#  transmission.
#
#  For information on this file format, follow the CIF links at
#  http://www.iucr.org
##########################################################################

data_Li3Mn2O4
_symmetry_space_group_name_H-M          'P 1'
_cell_length_a                          6.13475079234
_cell_length_b                          6.13475079234
_cell_length_c                          6.25274807865
_cell_angle_alpha                       120.603121659
_cell_angle_beta                        120.603121659
_cell_angle_gamma                       87.635997346
_chemical_name_systematic               'Generated by pymatgen'
_symmetry_Int_Tables_number             1
_chemical_formula_structural            Li3Mn2O4
_chemical_formula_sum                   'Li6 Mn4 O8'
_cell_volume                            166.621023553
_cell_formula_units_Z                   2
loop_
  _symmetry_equiv_pos_site_id
  _symmetry_equiv_pos_as_xyz
   1  'x, y, z'
 
loop_
  _atom_site_type_symbol
  _atom_site_label
  _atom_site_symmetry_multiplicity
  _atom_site_fract_x
  _atom_site_fract_y
  _atom_site_fract_z
  _atom_site_attached_hydrogens
  _atom_site_B_iso_or_equiv
  _atom_site_occupancy
   Li  Li1  1  0.867163  0.132837  0.750000  0  .  1
   Li  Li2  1  0.000000  0.000000  0.500000  0  .  1
   Li  Li3  1  0.000000  0.000000  0.000000  0  .  1
   Li  Li4  1  0.000000  0.500000  0.000000  0  .  1
   Li  Li5  1  0.132837  0.867163  0.250000  0  .  1
   Li  Li6  1  0.500000  0.000000  0.500000  0  .  1
   Mn  Mn7  1  0.000000  0.500000  0.500000  0  .  1
   Mn  Mn8  1  0.500000  0.500000  0.500000  0  .  1
   Mn  Mn9  1  0.500000  0.500000  0.000000  0  .  1
   Mn  Mn10  1  0.500000  0.000000  0.000000  0  .  1
   O  O11  1  0.267353  0.733840  0.006885  0  .  1
   O  O12  1  0.243053  0.252631  -0.002061  0  .  1
   O  O13  1  0.747369  0.756947  0.502061  0  .  1
   O  O14  1  0.733840  0.267353  0.506885  0  .  1
   O  O15  1  0.252631  0.243053  0.497939  0  .  1
   O  O16  1  0.266160  0.732647  0.493115  0  .  1
   O  O17  1  0.732647  0.266160  0.993115  0  .  1
   O  O18  1  0.756947  0.747369  1.002061  0  .  1
 
