#\#CIF1.1
##########################################################################
#               Crystallographic Information Format file 
#               Produced by PyCifRW module
# 
#  This is a CIF file.  CIF has been adopted by the International
#  Union of Crystallography as the standard for data archiving and 
#  transmission.
#
#  For information on this file format, follow the CIF links at
#  http://www.iucr.org
##########################################################################

data_Li3Mn10O20
_symmetry_space_group_name_H-M          'P 1'
_cell_length_a                          5.89207042673
_cell_length_b                          5.85816984867
_cell_length_c                          29.7749690279
_cell_angle_alpha                       60.5364129154
_cell_angle_beta                        60.0847780208
_cell_angle_gamma                       60.1901495652
_chemical_name_systematic               'Generated by pymatgen'
_symmetry_Int_Tables_number             1
_chemical_formula_structural            Li3Mn10O20
_chemical_formula_sum                   'Li6 Mn20 O40'
_cell_volume                            731.142131245
_cell_formula_units_Z                   2
loop_
  _symmetry_equiv_pos_site_id
  _symmetry_equiv_pos_as_xyz
   1  'x, y, z'
 
loop_
  _atom_site_type_symbol
  _atom_site_label
  _atom_site_symmetry_multiplicity
  _atom_site_fract_x
  _atom_site_fract_y
  _atom_site_fract_z
  _atom_site_attached_hydrogens
  _atom_site_B_iso_or_equiv
  _atom_site_occupancy
   Li  Li1  1  0.134034  0.144471  0.615405  0  .  1
   Li  Li2  1  0.874876  0.857685  0.181951  0  .  1
   Li  Li3  1  0.850023  0.876741  0.379299  0  .  1
   Li  Li4  1  0.863798  0.890201  0.571160  0  .  1
   Li  Li5  1  0.899544  0.890904  0.763730  0  .  1
   Li  Li6  1  0.888181  0.893994  0.964766  0  .  1
   Mn  Mn7  1  0.139132  0.096956  0.233391  0  .  1
   Mn  Mn8  1  0.013987  0.479014  0.105597  0  .  1
   Mn  Mn9  1  0.515108  0.480138  0.103886  0  .  1
   Mn  Mn10  1  0.504419  0.483986  0.205522  0  .  1
   Mn  Mn11  1  0.151682  0.113732  0.424171  0  .  1
   Mn  Mn12  1  0.515108  0.985324  0.103886  0  .  1
   Mn  Mn13  1  0.508504  0.489372  0.304336  0  .  1
   Mn  Mn14  1  0.507935  0.496708  0.399730  0  .  1
   Mn  Mn15  1  0.508504  0.980444  0.304336  0  .  1
   Mn  Mn16  1  0.501944  0.502934  0.498871  0  .  1
   Mn  Mn17  1  0.013671  0.512670  0.692198  0  .  1
   Mn  Mn18  1  0.505670  0.516325  0.592336  0  .  1
   Mn  Mn19  1  0.501944  0.000766  0.498871  0  .  1
   Mn  Mn20  1  0.510470  0.514612  0.691555  0  .  1
   Mn  Mn21  1  0.022569  0.522036  0.886672  0  .  1
   Mn  Mn22  1  0.510470  0.017144  0.691555  0  .  1
   Mn  Mn23  1  0.522323  0.018603  0.887606  0  .  1
   Mn  Mn24  1  0.523521  0.512680  0.790224  0  .  1
   Mn  Mn25  1  0.522323  0.521046  0.887606  0  .  1
   Mn  Mn26  1  0.515563  0.500570  0.996659  0  .  1
   O  O27  1  0.262189  0.230390  0.064511  0  .  1
   O  O28  1  0.274048  0.243105  0.147948  0  .  1
   O  O29  1  0.262189  0.684866  0.064511  0  .  1
   O  O30  1  0.711683  0.242305  0.060741  0  .  1
   O  O31  1  0.301976  0.238817  0.253043  0  .  1
   O  O32  1  0.307001  0.714032  0.152987  0  .  1
   O  O33  1  0.748451  0.275005  0.151965  0  .  1
   O  O34  1  0.757247  0.714791  0.062634  0  .  1
   O  O35  1  0.288418  0.244383  0.344563  0  .  1
   O  O36  1  0.301976  0.693992  0.253043  0  .  1
   O  O37  1  0.720757  0.246303  0.257327  0  .  1
   O  O38  1  0.748451  0.716718  0.151965  0  .  1
   O  O39  1  0.287496  0.252262  0.450234  0  .  1
   O  O40  1  0.288032  0.730652  0.350133  0  .  1
   O  O41  1  0.706165  0.742423  0.261798  0  .  1
   O  O42  1  0.705906  0.280155  0.353231  0  .  1
   O  O43  1  0.299003  0.255095  0.538161  0  .  1
   O  O44  1  0.287496  0.709073  0.450234  0  .  1
   O  O45  1  0.723109  0.260405  0.451216  0  .  1
   O  O46  1  0.705906  0.747783  0.353231  0  .  1
   O  O47  1  0.284521  0.747071  0.544268  0  .  1
   O  O48  1  0.252445  0.286756  0.646101  0  .  1
   O  O49  1  0.695949  0.291625  0.549904  0  .  1
   O  O50  1  0.702281  0.754198  0.457865  0  .  1
   O  O51  1  0.252445  0.730292  0.646101  0  .  1
   O  O52  1  0.276140  0.284213  0.731087  0  .  1
   O  O53  1  0.695949  0.762906  0.549904  0  .  1
   O  O54  1  0.714014  0.283500  0.643797  0  .  1
   O  O55  1  0.290756  0.284210  0.840434  0  .  1
   O  O56  1  0.310035  0.745825  0.739663  0  .  1
   O  O57  1  0.760559  0.299107  0.739840  0  .  1
   O  O58  1  0.749878  0.744635  0.652170  0  .  1
   O  O59  1  0.286787  0.290523  0.926433  0  .  1
   O  O60  1  0.290756  0.722864  0.840434  0  .  1
   O  O61  1  0.724228  0.285942  0.840778  0  .  1
   O  O62  1  0.760559  0.741135  0.739840  0  .  1
   O  O63  1  0.314201  0.763356  0.931818  0  .  1
   O  O64  1  0.771196  0.309878  0.929901  0  .  1
   O  O65  1  0.758307  0.755928  0.845967  0  .  1
   O  O66  1  0.771196  0.769423  0.929901  0  .  1
 
