#\#CIF1.1
##########################################################################
#               Crystallographic Information Format file 
#               Produced by PyCifRW module
# 
#  This is a CIF file.  CIF has been adopted by the International
#  Union of Crystallography as the standard for data archiving and 
#  transmission.
#
#  For information on this file format, follow the CIF links at
#  http://www.iucr.org
##########################################################################

data_Li3Mn8O16
_symmetry_space_group_name_H-M          'P 1'
_cell_length_a                          5.9723315834
_cell_length_b                          23.6000872078
_cell_length_c                          10.1422800043
_cell_angle_alpha                       30.7381567948
_cell_angle_beta                        53.924213609
_cell_angle_gamma                       59.5937497996
_chemical_name_systematic               'Generated by pymatgen'
_symmetry_Int_Tables_number             1
_chemical_formula_structural            Li3Mn8O16
_chemical_formula_sum                   'Li6 Mn16 O32'
_cell_volume                            590.543388027
_cell_formula_units_Z                   2
loop_
  _symmetry_equiv_pos_site_id
  _symmetry_equiv_pos_as_xyz
   1  'x, y, z'
 
loop_
  _atom_site_type_symbol
  _atom_site_label
  _atom_site_symmetry_multiplicity
  _atom_site_fract_x
  _atom_site_fract_y
  _atom_site_fract_z
  _atom_site_attached_hydrogens
  _atom_site_B_iso_or_equiv
  _atom_site_occupancy
   Li  Li1  1  0.120333  0.000000  0.129667  0  .  1
   Li  Li2  1  0.121763  0.243420  0.141396  0  .  1
   Li  Li3  1  0.121763  0.756580  0.115078  0  .  1
   Li  Li4  1  0.878237  0.256580  0.858604  0  .  1
   Li  Li5  1  0.879667  0.500000  0.870333  0  .  1
   Li  Li6  1  0.878237  0.743420  0.884922  0  .  1
   Mn  Mn7  1  0.497722  0.125841  0.000597  0  .  1
   Mn  Mn8  1  0.502421  0.000000  0.499266  0  .  1
   Mn  Mn9  1  0.000000  0.250000  0.500000  0  .  1
   Mn  Mn10  1  0.502278  0.374159  0.999403  0  .  1
   Mn  Mn11  1  0.498397  0.121820  0.507963  0  .  1
   Mn  Mn12  1  0.000953  0.500000  0.500734  0  .  1
   Mn  Mn13  1  0.500000  0.250000  0.500000  0  .  1
   Mn  Mn14  1  0.501603  0.378180  0.492037  0  .  1
   Mn  Mn15  1  0.501603  0.621820  0.004757  0  .  1
   Mn  Mn16  1  0.497579  0.500000  0.500734  0  .  1
   Mn  Mn17  1  0.000000  0.750000  0.500000  0  .  1
   Mn  Mn18  1  0.498397  0.878180  0.995243  0  .  1
   Mn  Mn19  1  0.502278  0.625841  0.496040  0  .  1
   Mn  Mn20  1  0.500000  0.750000  0.500000  0  .  1
   Mn  Mn21  1  0.999047  0.000000  0.499266  0  .  1
   Mn  Mn22  1  0.497722  0.874159  0.503960  0  .  1
   O  O23  1  0.245280  0.000000  0.267916  0  .  1
   O  O24  1  0.262875  0.110700  0.265725  0  .  1
   O  O25  1  0.718888  0.000000  0.267916  0  .  1
   O  O26  1  0.259373  0.238017  0.288739  0  .  1
   O  O27  1  0.256664  0.140479  0.712379  0  .  1
   O  O28  1  0.268535  0.354228  0.273009  0  .  1
   O  O29  1  0.733859  0.113945  0.288251  0  .  1
   O  O30  1  0.711081  0.238017  0.288739  0  .  1
   O  O31  1  0.274907  0.500000  0.261858  0  .  1
   O  O32  1  0.288919  0.261983  0.711261  0  .  1
   O  O33  1  0.266141  0.613945  0.255970  0  .  1
   O  O34  1  0.731465  0.145772  0.726991  0  .  1
   O  O35  1  0.266141  0.386055  0.711749  0  .  1
   O  O36  1  0.743336  0.359521  0.287621  0  .  1
   O  O37  1  0.740627  0.261983  0.711261  0  .  1
   O  O38  1  0.701377  0.500000  0.261858  0  .  1
   O  O39  1  0.259373  0.761983  0.240808  0  .  1
   O  O40  1  0.281112  0.500000  0.732084  0  .  1
   O  O41  1  0.737125  0.389300  0.734275  0  .  1
   O  O42  1  0.268535  0.645772  0.689921  0  .  1
   O  O43  1  0.256664  0.859521  0.274293  0  .  1
   O  O44  1  0.737125  0.610700  0.291475  0  .  1
   O  O45  1  0.754720  0.500000  0.732084  0  .  1
   O  O46  1  0.711081  0.761983  0.240808  0  .  1
   O  O47  1  0.288919  0.738017  0.759192  0  .  1
   O  O48  1  0.262875  0.889300  0.708525  0  .  1
   O  O49  1  0.743336  0.640479  0.725707  0  .  1
   O  O50  1  0.731465  0.854228  0.310079  0  .  1
   O  O51  1  0.740627  0.738017  0.759192  0  .  1
   O  O52  1  0.298623  0.000000  0.738142  0  .  1
   O  O53  1  0.733859  0.886055  0.744031  0  .  1
   O  O54  1  0.725093  0.000000  0.738142  0  .  1
 
