#\#CIF1.1
##########################################################################
#               Crystallographic Information Format file 
#               Produced by PyCifRW module
# 
#  This is a CIF file.  CIF has been adopted by the International
#  Union of Crystallography as the standard for data archiving and 
#  transmission.
#
#  For information on this file format, follow the CIF links at
#  http://www.iucr.org
##########################################################################

data_Li3Mn3O8
_symmetry_space_group_name_H-M          'P 1'
_cell_length_a                          5.92170252228
_cell_length_b                          5.92170275135
_cell_length_c                          5.92170296268
_cell_angle_alpha                       58.832108454
_cell_angle_beta                        58.8321120711
_cell_angle_gamma                       58.8321108667
_chemical_name_systematic               'Generated by pymatgen'
_symmetry_Int_Tables_number             1
_chemical_formula_structural            Li3Mn3O8
_chemical_formula_sum                   'Li3 Mn3 O8'
_cell_volume                            142.917916889
_cell_formula_units_Z                   1
loop_
  _symmetry_equiv_pos_site_id
  _symmetry_equiv_pos_as_xyz
   1  'x, y, z'
 
loop_
  _atom_site_type_symbol
  _atom_site_label
  _atom_site_symmetry_multiplicity
  _atom_site_fract_x
  _atom_site_fract_y
  _atom_site_fract_z
  _atom_site_attached_hydrogens
  _atom_site_B_iso_or_equiv
  _atom_site_occupancy
   Li  Li1  1  0.003758  0.003758  0.003758  0  .  1
   Li  Li2  1  0.246242  0.246242  0.246242  0  .  1
   Li  Li3  1  0.625000  0.625000  0.625000  0  .  1
   Mn  Mn4  1  0.125000  0.625000  0.625000  0  .  1
   Mn  Mn5  1  0.625000  0.125000  0.625000  0  .  1
   Mn  Mn6  1  0.625000  0.625000  0.125000  0  .  1
   O  O7  1  0.387378  0.387378  0.387378  0  .  1
   O  O8  1  0.376087  0.376087  0.833557  0  .  1
   O  O9  1  0.376087  0.833557  0.376087  0  .  1
   O  O10  1  0.833557  0.376087  0.376087  0  .  1
   O  O11  1  0.416443  0.873913  0.873913  0  .  1
   O  O12  1  0.873913  0.873913  0.416443  0  .  1
   O  O13  1  0.873913  0.416443  0.873913  0  .  1
   O  O14  1  0.862622  0.862622  0.862622  0  .  1
 
