#\#CIF1.1
##########################################################################
#               Crystallographic Information Format file 
#               Produced by PyCifRW module
# 
#  This is a CIF file.  CIF has been adopted by the International
#  Union of Crystallography as the standard for data archiving and 
#  transmission.
#
#  For information on this file format, follow the CIF links at
#  http://www.iucr.org
##########################################################################

data_Li3Ti8O16
_symmetry_space_group_name_H-M          'P 1'
_cell_length_a                          5.98336826704
_cell_length_b                          23.9354721526
_cell_length_c                          10.3640920785
_cell_angle_alpha                       30.0025984141
_cell_angle_beta                        54.7379318846
_cell_angle_gamma                       60.002761663
_chemical_name_systematic               'Generated by pymatgen'
_symmetry_Int_Tables_number             1
_chemical_formula_structural            Li3Ti8O16
_chemical_formula_sum                   'Li6 Ti16 O32'
_cell_volume                            606.024141234
_cell_formula_units_Z                   2
loop_
  _symmetry_equiv_pos_site_id
  _symmetry_equiv_pos_as_xyz
   1  'x, y, z'
 
loop_
  _atom_site_type_symbol
  _atom_site_label
  _atom_site_symmetry_multiplicity
  _atom_site_fract_x
  _atom_site_fract_y
  _atom_site_fract_z
  _atom_site_attached_hydrogens
  _atom_site_B_iso_or_equiv
  _atom_site_occupancy
   Li  Li1  1  0.126588  0.000000  0.123412  0  .  1
   Li  Li2  1  0.124038  0.248761  0.128440  0  .  1
   Li  Li3  1  0.124038  0.751239  0.123483  0  .  1
   Li  Li4  1  0.875962  0.251239  0.871560  0  .  1
   Li  Li5  1  0.873412  0.500000  0.876588  0  .  1
   Li  Li6  1  0.875962  0.748761  0.876517  0  .  1
   O  O7  1  0.263635  0.111986  0.262394  0  .  1
   O  O8  1  0.298394  0.000000  0.732886  0  .  1
   O  O9  1  0.263217  0.250068  0.262176  0  .  1
   O  O10  1  0.738471  0.112748  0.286032  0  .  1
   O  O11  1  0.262859  0.137438  0.712265  0  .  1
   O  O12  1  0.266552  0.358300  0.266848  0  .  1
   O  O13  1  0.735834  0.000000  0.732886  0  .  1
   O  O14  1  0.712158  0.250068  0.262176  0  .  1
   O  O15  1  0.287842  0.249932  0.737824  0  .  1
   O  O16  1  0.264166  0.500000  0.267114  0  .  1
   O  O17  1  0.733448  0.141700  0.733152  0  .  1
   O  O18  1  0.261529  0.612748  0.262975  0  .  1
   O  O19  1  0.737141  0.362562  0.287735  0  .  1
   O  O20  1  0.261529  0.387252  0.713968  0  .  1
   O  O21  1  0.736783  0.249932  0.737824  0  .  1
   O  O22  1  0.701606  0.500000  0.267114  0  .  1
   O  O23  1  0.288752  0.500000  0.737164  0  .  1
   O  O24  1  0.263217  0.749932  0.262449  0  .  1
   O  O25  1  0.736365  0.388014  0.737606  0  .  1
   O  O26  1  0.736365  0.611986  0.289663  0  .  1
   O  O27  1  0.262859  0.862562  0.262018  0  .  1
   O  O28  1  0.266552  0.641700  0.700048  0  .  1
   O  O29  1  0.736920  0.500000  0.737164  0  .  1
   O  O30  1  0.712158  0.749932  0.262449  0  .  1
   O  O31  1  0.287842  0.750068  0.737551  0  .  1
   O  O32  1  0.263080  0.000000  0.262836  0  .  1
   O  O33  1  0.737141  0.637438  0.737982  0  .  1
   O  O34  1  0.733448  0.858300  0.299952  0  .  1
   O  O35  1  0.263635  0.888014  0.710337  0  .  1
   O  O36  1  0.736783  0.750068  0.737551  0  .  1
   O  O37  1  0.711248  0.000000  0.262836  0  .  1
   O  O38  1  0.738471  0.887252  0.737025  0  .  1
   Ti  Ti39  1  0.504702  0.124486  0.996325  0  .  1
   Ti  Ti40  1  0.495380  0.000000  0.503085  0  .  1
   Ti  Ti41  1  0.499720  0.123259  0.503761  0  .  1
   Ti  Ti42  1  0.495298  0.375514  0.003675  0  .  1
   Ti  Ti43  1  0.500000  0.250000  0.500000  0  .  1
   Ti  Ti44  1  0.500280  0.376740  0.496239  0  .  1
   Ti  Ti45  1  0.500280  0.623259  0.003201  0  .  1
   Ti  Ti46  1  0.000000  0.250000  0.500000  0  .  1
   Ti  Ti47  1  0.504620  0.500000  0.496915  0  .  1
   Ti  Ti48  1  0.495298  0.624486  0.505730  0  .  1
   Ti  Ti49  1  0.499720  0.876741  0.996799  0  .  1
   Ti  Ti50  1  0.001550  0.500000  0.496915  0  .  1
   Ti  Ti51  1  0.500000  0.750000  0.500000  0  .  1
   Ti  Ti52  1  0.504702  0.875514  0.494270  0  .  1
   Ti  Ti53  1  0.000000  0.750000  0.500000  0  .  1
   Ti  Ti54  1  0.998450  0.000000  0.503085  0  .  1
 
