#\#CIF1.1
##########################################################################
#               Crystallographic Information Format file 
#               Produced by PyCifRW module
# 
#  This is a CIF file.  CIF has been adopted by the International
#  Union of Crystallography as the standard for data archiving and 
#  transmission.
#
#  For information on this file format, follow the CIF links at
#  http://www.iucr.org
##########################################################################

data_Li3V7O12
_symmetry_space_group_name_H-M          'P 1'
_cell_length_a                          5.22644446967
_cell_length_b                          5.22644427826
_cell_length_c                          9.91032552152
_cell_angle_alpha                       84.4843629599
_cell_angle_beta                        95.5156326369
_cell_angle_gamma                       59.7198991421
_chemical_name_systematic               'Generated by pymatgen'
_symmetry_Int_Tables_number             1
_chemical_formula_structural            Li3V7O12
_chemical_formula_sum                   'Li3 V7 O12'
_cell_volume                            229.377544955
_cell_formula_units_Z                   1
loop_
  _symmetry_equiv_pos_site_id
  _symmetry_equiv_pos_as_xyz
   1  'x, y, z'
 
loop_
  _atom_site_type_symbol
  _atom_site_label
  _atom_site_symmetry_multiplicity
  _atom_site_fract_x
  _atom_site_fract_y
  _atom_site_fract_z
  _atom_site_attached_hydrogens
  _atom_site_B_iso_or_equiv
  _atom_site_occupancy
   Li  Li1  1  0.156439  0.676063  0.512620  0  .  1
   Li  Li2  1  0.676063  0.156439  0.987380  0  .  1
   Li  Li3  1  0.920194  0.920194  0.750000  0  .  1
   V  V4  1  0.084668  0.084668  0.250000  0  .  1
   V  V5  1  0.999265  0.518559  0.987545  0  .  1
   V  V6  1  0.237299  0.237299  0.750000  0  .  1
   V  V7  1  0.518559  0.999265  0.512455  0  .  1
   V  V8  1  0.424535  0.424535  0.250000  0  .  1
   V  V9  1  0.574071  0.574071  0.750000  0  .  1
   V  V10  1  0.751362  0.751362  0.250000  0  .  1
   O  O11  1  0.147779  0.370077  0.362523  0  .  1
   O  O12  1  0.033800  0.788074  0.136105  0  .  1
   O  O13  1  0.370077  0.147779  0.137478  0  .  1
   O  O14  1  0.288279  0.505239  0.867874  0  .  1
   O  O15  1  0.505239  0.288279  0.632126  0  .  1
   O  O16  1  0.238179  0.944868  0.633363  0  .  1
   O  O17  1  0.449771  0.732973  0.363699  0  .  1
   O  O18  1  0.788074  0.033800  0.363895  0  .  1
   O  O19  1  0.642354  0.846679  0.871709  0  .  1
   O  O20  1  0.732973  0.449771  0.136301  0  .  1
   O  O21  1  0.944868  0.238179  0.866637  0  .  1
   O  O22  1  0.846679  0.642354  0.628291  0  .  1
 
