#\#CIF1.1
##########################################################################
#               Crystallographic Information Format file 
#               Produced by PyCifRW module
# 
#  This is a CIF file.  CIF has been adopted by the International
#  Union of Crystallography as the standard for data archiving and 
#  transmission.
#
#  For information on this file format, follow the CIF links at
#  http://www.iucr.org
##########################################################################

data_Li3VS4
_symmetry_space_group_name_H-M          'P 1'
_cell_length_a                          7.13297450478
_cell_length_b                          6.98974871
_cell_length_c                          12.9165346548
_cell_angle_alpha                       90.0
_cell_angle_beta                        101.289681013
_cell_angle_gamma                       90.0
_chemical_name_systematic               'Generated by pymatgen'
_symmetry_Int_Tables_number             1
_chemical_formula_structural            Li3VS4
_chemical_formula_sum                   'Li12 V4 S16'
_cell_volume                            631.527476598
_cell_formula_units_Z                   4
loop_
  _symmetry_equiv_pos_site_id
  _symmetry_equiv_pos_as_xyz
   1  'x, y, z'
 
loop_
  _atom_site_type_symbol
  _atom_site_label
  _atom_site_symmetry_multiplicity
  _atom_site_fract_x
  _atom_site_fract_y
  _atom_site_fract_z
  _atom_site_attached_hydrogens
  _atom_site_B_iso_or_equiv
  _atom_site_occupancy
   Li  Li1  1  0.066874  0.653463  0.891396  0  .  1
   Li  Li2  1  0.290775  0.084379  0.884358  0  .  1
   Li  Li3  1  0.066874  0.846537  0.391396  0  .  1
   Li  Li4  1  0.514365  0.499334  0.866213  0  .  1
   Li  Li5  1  0.290775  0.415621  0.384358  0  .  1
   Li  Li6  1  0.485635  0.999334  0.633787  0  .  1
   Li  Li7  1  0.514365  0.000666  0.366213  0  .  1
   Li  Li8  1  0.709225  0.584379  0.615642  0  .  1
   Li  Li9  1  0.485635  0.500666  0.133787  0  .  1
   Li  Li10  1  0.933126  0.153463  0.608604  0  .  1
   Li  Li11  1  0.709225  0.915621  0.115642  0  .  1
   Li  Li12  1  0.933126  0.346537  0.108604  0  .  1
   V  V13  1  0.295120  0.391206  0.622348  0  .  1
   V  V14  1  0.295120  0.108794  0.122348  0  .  1
   V  V15  1  0.704880  0.891206  0.877652  0  .  1
   V  V16  1  0.704880  0.608794  0.377652  0  .  1
   S  S17  1  0.097416  0.405080  0.729107  0  .  1
   S  S18  1  0.218238  0.154865  0.510721  0  .  1
   S  S19  1  0.097416  0.094920  0.229107  0  .  1
   S  S20  1  0.300891  0.652234  0.536777  0  .  1
   S  S21  1  0.422124  0.828058  0.788042  0  .  1
   S  S22  1  0.218238  0.345135  0.010721  0  .  1
   S  S23  1  0.577876  0.328058  0.711958  0  .  1
   S  S24  1  0.699109  0.152234  0.963223  0  .  1
   S  S25  1  0.300891  0.847766  0.036777  0  .  1
   S  S26  1  0.422124  0.671942  0.288042  0  .  1
   S  S27  1  0.781762  0.654865  0.989279  0  .  1
   S  S28  1  0.577876  0.171942  0.211958  0  .  1
   S  S29  1  0.699109  0.347766  0.463223  0  .  1
   S  S30  1  0.902584  0.905080  0.770893  0  .  1
   S  S31  1  0.781762  0.845135  0.489279  0  .  1
   S  S32  1  0.902584  0.594920  0.270893  0  .  1
 
