#\#CIF1.1
##########################################################################
#               Crystallographic Information Format file 
#               Produced by PyCifRW module
# 
#  This is a CIF file.  CIF has been adopted by the International
#  Union of Crystallography as the standard for data archiving and 
#  transmission.
#
#  For information on this file format, follow the CIF links at
#  http://www.iucr.org
##########################################################################

data_Li3V12O29
_symmetry_space_group_name_H-M          'P 1'
_cell_length_a                          14.3463525201
_cell_length_b                          14.3463525201
_cell_length_c                          10.3806056696
_cell_angle_alpha                       76.1734830574
_cell_angle_beta                        103.826516943
_cell_angle_gamma                       165.19193274
_chemical_name_systematic               'Generated by pymatgen'
_symmetry_Int_Tables_number             1
_chemical_formula_structural            Li3V12O29
_chemical_formula_sum                   'Li3 V12 O29'
_cell_volume                            529.960373529
_cell_formula_units_Z                   1
loop_
  _symmetry_equiv_pos_site_id
  _symmetry_equiv_pos_as_xyz
   1  'x, y, z'
 
loop_
  _atom_site_type_symbol
  _atom_site_label
  _atom_site_symmetry_multiplicity
  _atom_site_fract_x
  _atom_site_fract_y
  _atom_site_fract_z
  _atom_site_attached_hydrogens
  _atom_site_B_iso_or_equiv
  _atom_site_occupancy
   Li  Li1  1  0.007272  0.992728  0.324912  0  .  1
   Li  Li2  1  0.733109  0.266891  0.481292  0  .  1
   Li  Li3  1  0.993523  0.006477  0.673961  0  .  1
   V  V4  1  0.063585  0.936415  0.078847  0  .  1
   V  V5  1  0.146841  0.853159  0.338354  0  .  1
   V  V6  1  0.177226  0.822774  0.016282  0  .  1
   V  V7  1  0.302547  0.697453  0.204788  0  .  1
   V  V8  1  0.391047  0.608953  0.467068  0  .  1
   V  V9  1  0.415379  0.584621  0.144075  0  .  1
   V  V10  1  0.584752  0.415248  0.856317  0  .  1
   V  V11  1  0.609031  0.390969  0.533404  0  .  1
   V  V12  1  0.696137  0.303863  0.789310  0  .  1
   V  V13  1  0.823277  0.176723  0.978921  0  .  1
   V  V14  1  0.853393  0.146607  0.659747  0  .  1
   V  V15  1  0.935900  0.064100  0.920524  0  .  1
   O  O16  1  0.098940  0.901060  0.914772  0  .  1
   O  O17  1  0.062754  0.937246  0.240474  0  .  1
   O  O18  1  0.122768  0.877232  0.506895  0  .  1
   O  O19  1  0.141093  0.858907  0.162474  0  .  1
   O  O20  1  0.192877  0.807123  0.841311  0  .  1
   O  O21  1  0.206390  0.793610  0.398230  0  .  1
   O  O22  1  0.236045  0.763955  0.119580  0  .  1
   O  O23  1  0.299525  0.700475  0.360577  0  .  1
   O  O24  1  0.368237  0.631763  0.634746  0  .  1
   O  O25  1  0.335377  0.664623  0.035487  0  .  1
   O  O26  1  0.377464  0.622536  0.286524  0  .  1
   O  O27  1  0.431117  0.568883  0.962825  0  .  1
   O  O28  1  0.450262  0.549738  0.514527  0  .  1
   O  O29  1  0.470341  0.529659  0.250192  0  .  1
   O  O30  1  0.529771  0.470229  0.750250  0  .  1
   O  O31  1  0.000452  0.999548  0.002160  0  .  1
   O  O32  1  0.549763  0.450237  0.483843  0  .  1
   O  O33  1  0.569964  0.430036  0.037660  0  .  1
   O  O34  1  0.620981  0.379019  0.711980  0  .  1
   O  O35  1  0.664912  0.335088  0.964908  0  .  1
   O  O36  1  0.633869  0.366131  0.364882  0  .  1
   O  O37  1  0.699645  0.300355  0.631304  0  .  1
   O  O38  1  0.765797  0.234203  0.880451  0  .  1
   O  O39  1  0.794799  0.205201  0.605736  0  .  1
   O  O40  1  0.807114  0.192886  0.161898  0  .  1
   O  O41  1  0.860611  0.139389  0.837754  0  .  1
   O  O42  1  0.876763  0.123237  0.490162  0  .  1
   O  O43  1  0.938961  0.061039  0.761236  0  .  1
   O  O44  1  0.901577  0.098423  0.086064  0  .  1
 
