#\#CIF1.1
##########################################################################
#               Crystallographic Information Format file 
#               Produced by PyCifRW module
# 
#  This is a CIF file.  CIF has been adopted by the International
#  Union of Crystallography as the standard for data archiving and 
#  transmission.
#
#  For information on this file format, follow the CIF links at
#  http://www.iucr.org
##########################################################################

data_Li3VO4
_symmetry_space_group_name_H-M          'P 1'
_cell_length_a                          5.17564217
_cell_length_b                          6.40941956
_cell_length_c                          11.01479357
_cell_angle_alpha                       90.0
_cell_angle_beta                        90.0
_cell_angle_gamma                       90.0
_chemical_name_systematic               'Generated by pymatgen'
_symmetry_Int_Tables_number             1
_chemical_formula_structural            Li3VO4
_chemical_formula_sum                   'Li12 V4 O16'
_cell_volume                            365.392228818
_cell_formula_units_Z                   4
loop_
  _symmetry_equiv_pos_site_id
  _symmetry_equiv_pos_as_xyz
   1  'x, y, z'
 
loop_
  _atom_site_type_symbol
  _atom_site_label
  _atom_site_symmetry_multiplicity
  _atom_site_fract_x
  _atom_site_fract_y
  _atom_site_fract_z
  _atom_site_attached_hydrogens
  _atom_site_B_iso_or_equiv
  _atom_site_occupancy
   Li  Li1  1  0.191216  0.996270  0.334205  0  .  1
   Li  Li2  1  0.808784  0.496270  0.665795  0  .  1
   Li  Li3  1  0.308784  0.996270  0.834205  0  .  1
   Li  Li4  1  0.808784  0.003730  0.665795  0  .  1
   Li  Li5  1  0.306330  0.750000  0.078183  0  .  1
   Li  Li6  1  0.193670  0.750000  0.578183  0  .  1
   Li  Li7  1  0.691216  0.003730  0.165795  0  .  1
   Li  Li8  1  0.806330  0.250000  0.421817  0  .  1
   Li  Li9  1  0.691216  0.496270  0.165795  0  .  1
   Li  Li10  1  0.191216  0.503730  0.334205  0  .  1
   Li  Li11  1  0.308784  0.503730  0.834205  0  .  1
   Li  Li12  1  0.693670  0.250000  0.921817  0  .  1
   V  V13  1  0.186836  0.250000  0.086823  0  .  1
   V  V14  1  0.813164  0.750000  0.913177  0  .  1
   V  V15  1  0.686836  0.750000  0.413177  0  .  1
   V  V16  1  0.313164  0.250000  0.586823  0  .  1
   O  O17  1  0.701777  0.750000  0.062229  0  .  1
   O  O18  1  0.348427  0.750000  0.413311  0  .  1
   O  O19  1  0.203027  0.472571  0.662432  0  .  1
   O  O20  1  0.203027  0.027429  0.662432  0  .  1
   O  O21  1  0.201777  0.250000  0.437771  0  .  1
   O  O22  1  0.703027  0.527429  0.837568  0  .  1
   O  O23  1  0.796973  0.972571  0.337568  0  .  1
   O  O24  1  0.703027  0.972571  0.837568  0  .  1
   O  O25  1  0.298223  0.250000  0.937771  0  .  1
   O  O26  1  0.798223  0.750000  0.562229  0  .  1
   O  O27  1  0.296973  0.027429  0.162432  0  .  1
   O  O28  1  0.796973  0.527429  0.337568  0  .  1
   O  O29  1  0.651573  0.250000  0.586689  0  .  1
   O  O30  1  0.151573  0.750000  0.913311  0  .  1
   O  O31  1  0.848427  0.250000  0.086689  0  .  1
   O  O32  1  0.296973  0.472571  0.162432  0  .  1
 
