#\#CIF1.1
##########################################################################
#               Crystallographic Information Format file 
#               Produced by PyCifRW module
# 
#  This is a CIF file.  CIF has been adopted by the International
#  Union of Crystallography as the standard for data archiving and 
#  transmission.
#
#  For information on this file format, follow the CIF links at
#  http://www.iucr.org
##########################################################################

data_Li4(CoO2)9
_symmetry_space_group_name_H-M          'P 1'
_cell_length_a                          8.69743218928
_cell_length_b                          23.9432003005
_cell_length_c                          2.82252593
_cell_angle_alpha                       90.0000811172
_cell_angle_beta                        90.0000112994
_cell_angle_gamma                       89.7221483852
_chemical_name_systematic               'Generated by pymatgen'
_symmetry_Int_Tables_number             1
_chemical_formula_structural            Li4(CoO2)9
_chemical_formula_sum                   'Li8 Co18 O36'
_cell_volume                            587.768197401
_cell_formula_units_Z                   2
loop_
  _symmetry_equiv_pos_site_id
  _symmetry_equiv_pos_as_xyz
   1  'x, y, z'
 
loop_
  _atom_site_type_symbol
  _atom_site_label
  _atom_site_symmetry_multiplicity
  _atom_site_fract_x
  _atom_site_fract_y
  _atom_site_fract_z
  _atom_site_attached_hydrogens
  _atom_site_B_iso_or_equiv
  _atom_site_occupancy
   Li  Li1  1  0.169253  0.993218  0.999998  0  .  1
   Li  Li2  1  0.206299  0.203300  1.000000  0  .  1
   Li  Li3  1  0.294537  0.703834  0.999998  0  .  1
   Li  Li4  1  0.326361  0.493369  -0.000001  0  .  1
   Li  Li5  1  0.672883  0.506630  0.999999  0  .  1
   Li  Li6  1  0.704723  0.295922  0.000001  0  .  1
   Li  Li7  1  0.793824  0.796688  0.000000  0  .  1
   Li  Li8  1  0.830569  0.006850  0.000001  0  .  1
   Co  Co9  1  0.000061  0.499973  -0.000001  0  .  1
   Co  Co10  1  0.015922  0.105792  0.999999  0  .  1
   Co  Co11  1  0.019399  0.310198  0.000001  0  .  1
   Co  Co12  1  0.140487  0.587220  0.500000  0  .  1
   Co  Co13  1  0.145435  0.809127  0.500002  0  .  1
   Co  Co14  1  0.354748  0.309426  0.500000  0  .  1
   Co  Co15  1  0.359632  0.087395  0.499999  0  .  1
   Co  Co16  1  0.480972  0.809817  0.000001  0  .  1
   Co  Co17  1  0.484066  0.605761  0.999999  0  .  1
   Co  Co18  1  0.499971  0.999983  -0.000000  0  .  1
   Co  Co19  1  0.516477  0.394234  -0.000004  0  .  1
   Co  Co20  1  0.519143  0.190082  0.000001  0  .  1
   Co  Co21  1  0.640361  0.912595  0.500004  0  .  1
   Co  Co22  1  0.645163  0.690580  0.500001  0  .  1
   Co  Co23  1  0.854562  0.190948  0.499998  0  .  1
   Co  Co24  1  0.859337  0.412894  0.500001  0  .  1
   Co  Co25  1  0.980688  0.689828  0.000001  0  .  1
   Co  Co26  1  0.984118  0.894263  0.000000  0  .  1
   O  O27  1  -0.000538  0.421134  0.000004  0  .  1
   O  O28  1  0.000984  0.578702  0.000001  0  .  1
   O  O29  1  0.031851  0.942501  0.500001  0  .  1
   O  O30  1  0.052004  0.159632  0.500005  0  .  1
   O  O31  1  0.112203  0.665736  0.500002  0  .  1
   O  O32  1  0.102590  0.760929  0.000004  0  .  1
   O  O33  1  0.146772  0.508118  0.499996  0  .  1
   O  O34  1  0.149636  0.286035  0.499999  0  .  1
   O  O35  1  0.179172  0.859549  0.000005  0  .  1
   O  O36  1  0.218391  0.087752  0.999997  0  .  1
   O  O37  1  0.281227  0.588388  -0.000000  0  .  1
   O  O38  1  0.320157  0.359790  -0.000001  0  .  1
   O  O39  1  0.351329  0.786089  0.500004  0  .  1
   O  O40  1  0.354276  0.006932  0.499999  0  .  1
   O  O41  1  0.398248  0.260992  0.000001  0  .  1
   O  O42  1  0.387968  0.165401  0.499999  0  .  1
   O  O43  1  0.448020  0.659704  0.499999  0  .  1
   O  O44  1  0.467843  0.442062  0.499998  0  .  1
   O  O45  1  0.502708  0.077514  0.000001  0  .  1
   O  O46  1  0.497276  0.922482  0.000005  0  .  1
   O  O47  1  0.532121  0.557768  0.500000  0  .  1
   O  O48  1  0.551951  0.340228  0.499994  0  .  1
   O  O49  1  0.611970  0.834644  0.499999  0  .  1
   O  O50  1  0.601860  0.739000  0.999999  0  .  1
   O  O51  1  0.645649  0.993053  0.499998  0  .  1
   O  O52  1  0.648534  0.214058  0.500001  0  .  1
   O  O53  1  0.679574  0.640187  0.000004  0  .  1
   O  O54  1  0.719040  0.411647  0.000000  0  .  1
   O  O55  1  0.781659  0.912271  0.000005  0  .  1
   O  O56  1  0.820794  0.140506  0.999998  0  .  1
   O  O57  1  0.850745  0.713878  0.500000  0  .  1
   O  O58  1  0.853594  0.491952  0.499998  0  .  1
   O  O59  1  0.897165  0.239145  0.999996  0  .  1
   O  O60  1  0.888020  0.334283  0.500002  0  .  1
   O  O61  1  0.948046  0.840451  0.499994  0  .  1
   O  O62  1  0.968176  0.057561  0.499992  0  .  1
 
