#\#CIF1.1
##########################################################################
#               Crystallographic Information Format file 
#               Produced by PyCifRW module
# 
#  This is a CIF file.  CIF has been adopted by the International
#  Union of Crystallography as the standard for data archiving and 
#  transmission.
#
#  For information on this file format, follow the CIF links at
#  http://www.iucr.org
##########################################################################

data_Li4(NiO2)7
_symmetry_space_group_name_H-M          'P 1'
_cell_length_a                          7.65457935223
_cell_length_b                          6.43202134743
_cell_length_c                          4.92003060102
_cell_angle_alpha                       96.2695324052
_cell_angle_beta                        100.619464333
_cell_angle_gamma                       87.7965339919
_chemical_name_systematic               'Generated by pymatgen'
_symmetry_Int_Tables_number             1
_chemical_formula_structural            Li4(NiO2)7
_chemical_formula_sum                   'Li4 Ni7 O14'
_cell_volume                            236.620459763
_cell_formula_units_Z                   1
loop_
  _symmetry_equiv_pos_site_id
  _symmetry_equiv_pos_as_xyz
   1  'x, y, z'
 
loop_
  _atom_site_type_symbol
  _atom_site_label
  _atom_site_symmetry_multiplicity
  _atom_site_fract_x
  _atom_site_fract_y
  _atom_site_fract_z
  _atom_site_attached_hydrogens
  _atom_site_B_iso_or_equiv
  _atom_site_occupancy
   Li  Li1  1  0.144634  0.143021  0.570706  0  .  1
   Li  Li2  1  0.426795  0.428408  0.715009  0  .  1
   Li  Li3  1  0.712302  0.711407  0.863202  0  .  1
   Li  Li4  1  0.859128  0.860022  0.422513  0  .  1
   Ni  Ni5  1  0.066833  0.574163  0.783138  0  .  1
   Ni  Ni6  1  0.504596  0.997265  0.502576  0  .  1
   Ni  Ni7  1  0.641242  0.147734  0.072724  0  .  1
   Ni  Ni8  1  0.217120  0.709530  0.355497  0  .  1
   Ni  Ni9  1  0.354309  0.861899  0.930217  0  .  1
   Ni  Ni10  1  0.785714  0.285714  0.642857  0  .  1
   Ni  Ni11  1  0.930186  0.423695  0.212990  0  .  1
   O  O12  1  0.013339  0.308559  0.868495  0  .  1
   O  O13  1  0.406140  0.118322  0.804195  0  .  1
   O  O14  1  0.165289  0.453106  0.481520  0  .  1
   O  O15  1  0.292478  0.596223  0.016806  0  .  1
   O  O16  1  0.111716  0.830053  0.657079  0  .  1
   O  O17  1  0.558090  0.262870  0.417219  0  .  1
   O  O18  1  0.730376  0.019531  0.730404  0  .  1
   O  O19  1  0.278951  0.975205  0.268909  0  .  1
   O  O20  1  0.689295  0.401127  0.949202  0  .  1
   O  O21  1  0.882133  0.170302  0.336512  0  .  1
   O  O22  1  0.459712  0.741375  0.628635  0  .  1
   O  O23  1  0.604882  0.891334  0.190579  0  .  1
   O  O24  1  0.841052  0.551898  0.555311  0  .  1
   O  O25  1  0.966546  0.680094  0.095135  0  .  1
 
