#\#CIF1.1
##########################################################################
#               Crystallographic Information Format file 
#               Produced by PyCifRW module
# 
#  This is a CIF file.  CIF has been adopted by the International
#  Union of Crystallography as the standard for data archiving and 
#  transmission.
#
#  For information on this file format, follow the CIF links at
#  http://www.iucr.org
##########################################################################

data_Li4(NiO2)11
_symmetry_space_group_name_H-M          'P 1'
_cell_length_a                          7.41524541529
_cell_length_b                          7.74996614262
_cell_length_c                          7.63998156694
_cell_angle_alpha                       82.7732905511
_cell_angle_beta                        66.1893522696
_cell_angle_gamma                       68.8303058712
_chemical_name_systematic               'Generated by pymatgen'
_symmetry_Int_Tables_number             1
_chemical_formula_structural            Li4(NiO2)11
_chemical_formula_sum                   'Li4 Ni11 O22'
_cell_volume                            374.472940161
_cell_formula_units_Z                   1
loop_
  _symmetry_equiv_pos_site_id
  _symmetry_equiv_pos_as_xyz
   1  'x, y, z'
 
loop_
  _atom_site_type_symbol
  _atom_site_label
  _atom_site_symmetry_multiplicity
  _atom_site_fract_x
  _atom_site_fract_y
  _atom_site_fract_z
  _atom_site_attached_hydrogens
  _atom_site_B_iso_or_equiv
  _atom_site_occupancy
   Li  Li1  1  0.374005  0.105917  0.901015  0  .  1
   Li  Li2  1  0.526881  0.646504  0.349203  0  .  1
   Li  Li3  1  0.834909  0.442507  0.561084  0  .  1
   Li  Li4  1  0.987973  0.988460  0.004508  0  .  1
   Ni  Ni5  1  0.227628  0.180150  0.316521  0  .  1
   Ni  Ni6  1  0.313189  0.460758  0.050435  0  .  1
   Ni  Ni7  1  0.049093  0.630951  0.859805  0  .  1
   Ni  Ni8  1  0.500598  0.998717  0.499640  0  .  1
   Ni  Ni9  1  0.136303  0.909890  0.592159  0  .  1
   Ni  Ni10  1  0.590713  0.273106  0.226286  0  .  1
   Ni  Ni11  1  0.411573  0.726704  0.770031  0  .  1
   Ni  Ni12  1  0.864157  0.090798  0.408215  0  .  1
   Ni  Ni13  1  0.951012  0.364687  0.139968  0  .  1
   Ni  Ni14  1  0.680986  0.545912  0.955178  0  .  1
   Ni  Ni15  1  0.772618  0.817553  0.682886  0  .  1
   O  O16  1  0.109627  0.121340  0.166709  0  .  1
   O  O17  1  0.068059  0.420376  0.288915  0  .  1
   O  O18  1  0.184524  0.703984  0.983903  0  .  1
   O  O19  1  0.998737  0.843343  0.466404  0  .  1
   O  O20  1  0.448712  0.212338  0.100492  0  .  1
   O  O21  1  0.365597  0.245916  0.442390  0  .  1
   O  O22  1  0.177857  0.388082  0.926306  0  .  1
   O  O23  1  0.456990  0.520481  0.174257  0  .  1
   O  O24  1  0.295057  0.669887  0.621284  0  .  1
   O  O25  1  0.743643  0.033449  0.262190  0  .  1
   O  O26  1  0.363530  0.934082  0.372905  0  .  1
   O  O27  1  0.621050  0.057013  0.645152  0  .  1
   O  O28  1  0.253627  0.969879  0.742033  0  .  1
   O  O29  1  0.724455  0.341523  0.355329  0  .  1
   O  O30  1  0.565565  0.486164  0.805959  0  .  1
   O  O31  1  0.796466  0.605371  0.104528  0  .  1
   O  O32  1  0.638856  0.748728  0.554378  0  .  1
   O  O33  1  0.544331  0.791979  0.902855  0  .  1
   O  O34  1  0.000670  0.155429  0.535582  0  .  1
   O  O35  1  0.818271  0.299901  0.006757  0  .  1
   O  O36  1  0.905023  0.570526  0.736232  0  .  1
   O  O37  1  0.914543  0.878917  0.808318  0  .  1
 
