#\#CIF1.1
##########################################################################
#               Crystallographic Information Format file 
#               Produced by PyCifRW module
# 
#  This is a CIF file.  CIF has been adopted by the International
#  Union of Crystallography as the standard for data archiving and 
#  transmission.
#
#  For information on this file format, follow the CIF links at
#  http://www.iucr.org
##########################################################################

data_Li4(NiO2)5
_symmetry_space_group_name_H-M          'P 1'
_cell_length_a                          5.07017798466
_cell_length_b                          5.82180288904
_cell_length_c                          6.42406637818
_cell_angle_alpha                       104.827849607
_cell_angle_beta                        96.7452349278
_cell_angle_gamma                       107.471512822
_chemical_name_systematic               'Generated by pymatgen'
_symmetry_Int_Tables_number             1
_chemical_formula_structural            Li4(NiO2)5
_chemical_formula_sum                   'Li4 Ni5 O10'
_cell_volume                            170.926219684
_cell_formula_units_Z                   1
loop_
  _symmetry_equiv_pos_site_id
  _symmetry_equiv_pos_as_xyz
   1  'x, y, z'
 
loop_
  _atom_site_type_symbol
  _atom_site_label
  _atom_site_symmetry_multiplicity
  _atom_site_fract_x
  _atom_site_fract_y
  _atom_site_fract_z
  _atom_site_attached_hydrogens
  _atom_site_B_iso_or_equiv
  _atom_site_occupancy
   Li  Li1  1  0.799164  0.593391  0.590052  0  .  1
   Li  Li2  1  0.600971  0.206640  0.210102  0  .  1
   Li  Li3  1  0.396049  0.788152  0.790761  0  .  1
   Li  Li4  1  0.003939  0.012006  0.009189  0  .  1
   Ni  Ni5  1  0.805012  0.102770  0.602563  0  .  1
   Ni  Ni6  1  0.403256  0.303122  0.798967  0  .  1
   Ni  Ni7  1  0.594978  0.697179  0.197422  0  .  1
   Ni  Ni8  1  0.200029  0.900008  0.399999  0  .  1
   Ni  Ni9  1  0.996698  0.496862  0.001011  0  .  1
   O  O10  1  0.866808  0.025801  0.309302  0  .  1
   O  O11  1  0.680037  0.638685  0.914078  0  .  1
   O  O12  1  0.873632  0.563112  0.273368  0  .  1
   O  O13  1  0.719906  0.161338  0.885901  0  .  1
   O  O14  1  0.533185  0.774143  0.490673  0  .  1
   O  O15  1  0.526372  0.236861  0.526638  0  .  1
   O  O16  1  0.304031  0.819098  0.101234  0  .  1
   O  O17  1  0.075557  0.434211  0.717271  0  .  1
   O  O18  1  0.324405  0.365773  0.082722  0  .  1
   O  O19  1  0.095969  0.980845  0.698747  0  .  1
 
