#\#CIF1.1
##########################################################################
#               Crystallographic Information Format file 
#               Produced by PyCifRW module
# 
#  This is a CIF file.  CIF has been adopted by the International
#  Union of Crystallography as the standard for data archiving and 
#  transmission.
#
#  For information on this file format, follow the CIF links at
#  http://www.iucr.org
##########################################################################

data_Li47(NiO4)8
_symmetry_space_group_name_H-M          'P 1'
_cell_length_a                          9.40227048054
_cell_length_b                          9.42323895585
_cell_length_c                          9.16041491969
_cell_angle_alpha                       90.0705666594
_cell_angle_beta                        90.0110391205
_cell_angle_gamma                       89.7937260891
_chemical_name_systematic               'Generated by pymatgen'
_symmetry_Int_Tables_number             1
_chemical_formula_structural            Li47(NiO4)8
_chemical_formula_sum                   'Li47 Ni8 O32'
_cell_volume                            811.605420007
_cell_formula_units_Z                   1
loop_
  _symmetry_equiv_pos_site_id
  _symmetry_equiv_pos_as_xyz
   1  'x, y, z'
 
loop_
  _atom_site_type_symbol
  _atom_site_label
  _atom_site_symmetry_multiplicity
  _atom_site_fract_x
  _atom_site_fract_y
  _atom_site_fract_z
  _atom_site_attached_hydrogens
  _atom_site_B_iso_or_equiv
  _atom_site_occupancy
   Li  Li1  1  0.851661  0.635396  0.117003  0  .  1
   Li  Li2  1  0.351829  0.867061  0.119986  0  .  1
   Li  Li3  1  0.884702  0.395863  0.116317  0  .  1
   Li  Li4  1  0.386604  0.105873  0.115227  0  .  1
   Li  Li5  1  0.635146  0.387553  0.121509  0  .  1
   Li  Li6  1  0.139650  0.112686  0.121454  0  .  1
   Li  Li7  1  0.117985  0.648680  0.133789  0  .  1
   Li  Li8  1  0.621713  0.857758  0.116723  0  .  1
   Li  Li9  1  0.893800  0.874386  0.133906  0  .  1
   Li  Li10  1  0.387734  0.622008  0.137624  0  .  1
   Li  Li11  1  0.628268  0.118369  0.161166  0  .  1
   Li  Li12  1  0.124691  0.382334  0.160496  0  .  1
   Li  Li13  1  0.625295  0.619346  0.333277  0  .  1
   Li  Li14  1  0.125767  0.883233  0.340840  0  .  1
   Li  Li15  1  0.391921  0.128962  0.365184  0  .  1
   Li  Li16  1  0.891727  0.372212  0.366255  0  .  1
   Li  Li17  1  0.119567  0.148781  0.366833  0  .  1
   Li  Li18  1  0.618978  0.352617  0.367121  0  .  1
   Li  Li19  1  0.138539  0.614441  0.379968  0  .  1
   Li  Li20  1  0.638171  0.885106  0.378777  0  .  1
   Li  Li21  1  0.885545  0.893048  0.383854  0  .  1
   Li  Li22  1  0.386102  0.607457  0.386020  0  .  1
   Li  Li23  1  0.852940  0.131335  0.384465  0  .  1
   Li  Li24  1  0.352326  0.369613  0.383019  0  .  1
   Li  Li25  1  0.648748  0.630190  0.603577  0  .  1
   Li  Li26  1  0.151211  0.870468  0.617492  0  .  1
   Li  Li27  1  0.616473  0.391131  0.615941  0  .  1
   Li  Li28  1  0.112941  0.107700  0.615998  0  .  1
   Li  Li29  1  0.359132  0.116439  0.617860  0  .  1
   Li  Li30  1  0.861940  0.386173  0.619984  0  .  1
   Li  Li31  1  0.379754  0.651681  0.633615  0  .  1
   Li  Li32  1  0.885259  0.852022  0.632266  0  .  1
   Li  Li33  1  0.109033  0.629388  0.634511  0  .  1
   Li  Li34  1  0.608944  0.874565  0.649769  0  .  1
   Li  Li35  1  0.873598  0.117180  0.661156  0  .  1
   Li  Li36  1  0.373475  0.381557  0.658748  0  .  1
   Li  Li37  1  0.880260  0.614666  0.840833  0  .  1
   Li  Li38  1  0.392151  0.884282  0.845662  0  .  1
   Li  Li39  1  0.608811  0.364024  0.868129  0  .  1
   Li  Li40  1  0.107167  0.128832  0.866864  0  .  1
   Li  Li41  1  0.378183  0.148417  0.863863  0  .  1
   Li  Li42  1  0.879758  0.347739  0.864656  0  .  1
   Li  Li43  1  0.358268  0.609584  0.881738  0  .  1
   Li  Li44  1  0.845971  0.885800  0.881266  0  .  1
   Li  Li45  1  0.115474  0.608493  0.884909  0  .  1
   Li  Li46  1  0.638880  0.103181  0.884552  0  .  1
   Li  Li47  1  0.146060  0.369919  0.883931  0  .  1
   Ni  Ni48  1  0.879081  0.132737  0.101189  0  .  1
   Ni  Ni49  1  0.376183  0.366683  0.098826  0  .  1
   Ni  Ni50  1  0.877410  0.631253  0.401318  0  .  1
   Ni  Ni51  1  0.378201  0.869880  0.402397  0  .  1
   Ni  Ni52  1  0.621678  0.130929  0.598057  0  .  1
   Ni  Ni53  1  0.122364  0.370384  0.598422  0  .  1
   Ni  Ni54  1  0.623532  0.639913  0.887277  0  .  1
   Ni  Ni55  1  0.122558  0.869422  0.899535  0  .  1
   O  O56  1  0.515825  0.237076  0.011025  0  .  1
   O  O57  1  0.015517  0.264787  0.010825  0  .  1
   O  O58  1  0.749280  0.993078  0.027943  0  .  1
   O  O59  1  0.240817  0.508955  0.020201  0  .  1
   O  O60  1  0.992826  0.019608  0.250901  0  .  1
   O  O61  1  0.488899  0.479677  0.249252  0  .  1
   O  O62  1  0.766387  0.264397  0.235907  0  .  1
   O  O63  1  0.264855  0.240001  0.236050  0  .  1
   O  O64  1  0.767226  0.759969  0.264291  0  .  1
   O  O65  1  0.265901  0.739709  0.264785  0  .  1
   O  O66  1  0.990279  0.519163  0.251198  0  .  1
   O  O67  1  0.489987  0.980232  0.249498  0  .  1
   O  O68  1  0.742431  0.489458  0.479377  0  .  1
   O  O69  1  0.241240  0.011323  0.479496  0  .  1
   O  O70  1  0.017480  0.761029  0.490053  0  .  1
   O  O71  1  0.515648  0.738817  0.489300  0  .  1
   O  O72  1  0.483081  0.263966  0.510394  0  .  1
   O  O73  1  0.983618  0.239916  0.510968  0  .  1
   O  O74  1  0.759086  0.988998  0.521581  0  .  1
   O  O75  1  0.258289  0.511005  0.521287  0  .  1
   O  O76  1  0.500673  0.024803  0.739061  0  .  1
   O  O77  1  0.009512  0.481679  0.749217  0  .  1
   O  O78  1  0.734568  0.258973  0.735999  0  .  1
   O  O79  1  0.232422  0.241958  0.735998  0  .  1
   O  O80  1  0.738181  0.743855  0.758337  0  .  1
   O  O81  1  0.237555  0.740170  0.766244  0  .  1
   O  O82  1  0.513145  0.522944  0.754995  0  .  1
   O  O83  1  0.007813  0.981323  0.751774  0  .  1
   O  O84  1  0.260224  0.007793  0.981568  0  .  1
   O  O85  1  0.746342  0.502585  0.977425  0  .  1
   O  O86  1  0.488343  0.740802  0.992613  0  .  1
   O  O87  1  0.983468  0.738664  0.988080  0  .  1
 
