#\#CIF1.1
##########################################################################
#               Crystallographic Information Format file 
#               Produced by PyCifRW module
# 
#  This is a CIF file.  CIF has been adopted by the International
#  Union of Crystallography as the standard for data archiving and 
#  transmission.
#
#  For information on this file format, follow the CIF links at
#  http://www.iucr.org
##########################################################################

data_Li4CrO5
_symmetry_space_group_name_H-M          'P 1'
_cell_length_a                          8.86936963089
_cell_length_b                          8.91559468769
_cell_length_c                          5.00994190196
_cell_angle_alpha                       96.7458912472
_cell_angle_beta                        96.4509597511
_cell_angle_gamma                       113.355268012
_chemical_name_systematic               'Generated by pymatgen'
_symmetry_Int_Tables_number             1
_chemical_formula_structural            Li4CrO5
_chemical_formula_sum                   'Li16 Cr4 O20'
_cell_volume                            355.657250137
_cell_formula_units_Z                   4
loop_
  _symmetry_equiv_pos_site_id
  _symmetry_equiv_pos_as_xyz
   1  'x, y, z'
 
loop_
  _atom_site_type_symbol
  _atom_site_label
  _atom_site_symmetry_multiplicity
  _atom_site_fract_x
  _atom_site_fract_y
  _atom_site_fract_z
  _atom_site_attached_hydrogens
  _atom_site_B_iso_or_equiv
  _atom_site_occupancy
   Li  Li1  1  0.104456  0.914628  0.515873  0  .  1
   Li  Li2  1  0.199692  0.802360  0.976822  0  .  1
   Li  Li3  1  0.047931  0.461780  0.745674  0  .  1
   Li  Li4  1  0.156778  0.356584  0.284371  0  .  1
   Li  Li5  1  0.000000  0.000000  0.000000  0  .  1
   Li  Li6  1  0.395955  0.594935  0.003479  0  .  1
   Li  Li7  1  0.549763  0.934975  0.214584  0  .  1
   Li  Li8  1  0.642942  0.839564  0.742287  0  .  1
   Li  Li9  1  0.500000  0.500000  0.500000  0  .  1
   Li  Li10  1  0.357058  0.160436  0.257713  0  .  1
   Li  Li11  1  0.450237  0.065025  0.785416  0  .  1
   Li  Li12  1  0.604045  0.405065  0.996521  0  .  1
   Li  Li13  1  0.843222  0.643416  0.715629  0  .  1
   Li  Li14  1  0.952069  0.538220  0.254326  0  .  1
   Li  Li15  1  0.800308  0.197640  0.023178  0  .  1
   Li  Li16  1  0.895544  0.085372  0.484127  0  .  1
   Cr  Cr17  1  0.298987  0.739435  0.477160  0  .  1
   Cr  Cr18  1  0.213647  0.246535  0.787451  0  .  1
   Cr  Cr19  1  0.786353  0.753465  0.212549  0  .  1
   Cr  Cr20  1  0.701013  0.260565  0.522840  0  .  1
   O  O21  1  0.103180  0.681058  0.608823  0  .  1
   O  O22  1  0.031332  0.222958  0.894787  0  .  1
   O  O23  1  0.319782  0.917933  0.367857  0  .  1
   O  O24  1  0.181212  0.585309  0.178154  0  .  1
   O  O25  1  0.405045  0.817652  0.829594  0  .  1
   O  O26  1  0.272401  0.436175  0.659610  0  .  1
   O  O27  1  0.143070  0.140530  0.436197  0  .  1
   O  O28  1  0.228933  0.056587  0.870313  0  .  1
   O  O29  1  0.479048  0.714506  0.398113  0  .  1
   O  O30  1  0.364381  0.357219  0.086326  0  .  1
   O  O31  1  0.635619  0.642781  0.913674  0  .  1
   O  O32  1  0.520952  0.285494  0.601887  0  .  1
   O  O33  1  0.771067  0.943413  0.129687  0  .  1
   O  O34  1  0.856930  0.859470  0.563803  0  .  1
   O  O35  1  0.727599  0.563825  0.340390  0  .  1
   O  O36  1  0.594955  0.182348  0.170406  0  .  1
   O  O37  1  0.818788  0.414691  0.821846  0  .  1
   O  O38  1  0.680218  0.082068  0.632143  0  .  1
   O  O39  1  0.968668  0.777042  0.105213  0  .  1
   O  O40  1  0.896820  0.318942  0.391177  0  .  1
 
