#\#CIF1.1
##########################################################################
#               Crystallographic Information Format file 
#               Produced by PyCifRW module
# 
#  This is a CIF file.  CIF has been adopted by the International
#  Union of Crystallography as the standard for data archiving and 
#  transmission.
#
#  For information on this file format, follow the CIF links at
#  http://www.iucr.org
##########################################################################

data_Li4FeO4
_symmetry_space_group_name_H-M          'P 1'
_cell_length_a                          5.28898321963
_cell_length_b                          5.2557592367
_cell_length_c                          7.23496660576
_cell_angle_alpha                       88.7603813317
_cell_angle_beta                        73.8484998102
_cell_angle_gamma                       70.1105912325
_chemical_name_systematic               'Generated by pymatgen'
_symmetry_Int_Tables_number             1
_chemical_formula_structural            Li4FeO4
_chemical_formula_sum                   'Li8 Fe2 O8'
_cell_volume                            181.059653446
_cell_formula_units_Z                   2
loop_
  _symmetry_equiv_pos_site_id
  _symmetry_equiv_pos_as_xyz
   1  'x, y, z'
 
loop_
  _atom_site_type_symbol
  _atom_site_label
  _atom_site_symmetry_multiplicity
  _atom_site_fract_x
  _atom_site_fract_y
  _atom_site_fract_z
  _atom_site_attached_hydrogens
  _atom_site_B_iso_or_equiv
  _atom_site_occupancy
   Li  Li1  1  0.215425  0.242828  0.687344  0  .  1
   Li  Li2  1  0.212715  0.751466  0.515801  0  .  1
   Li  Li3  1  0.057081  0.719855  0.933843  0  .  1
   Li  Li4  1  0.402206  0.793323  0.142059  0  .  1
   Li  Li5  1  0.597794  0.206677  0.857941  0  .  1
   Li  Li6  1  0.942919  0.280145  0.066157  0  .  1
   Li  Li7  1  0.787285  0.248534  0.484199  0  .  1
   Li  Li8  1  0.784575  0.757172  0.312656  0  .  1
   Fe  Fe9  1  0.405157  0.286504  0.252464  0  .  1
   Fe  Fe10  1  0.594843  0.713496  0.747536  0  .  1
   O  O11  1  0.154695  0.537110  0.158788  0  .  1
   O  O12  1  0.207492  0.107069  0.414327  0  .  1
   O  O13  1  0.702097  0.009240  0.106047  0  .  1
   O  O14  1  0.589926  0.499017  0.300885  0  .  1
   O  O15  1  0.410074  0.500983  0.699115  0  .  1
   O  O16  1  0.297903  0.990760  0.893953  0  .  1
   O  O17  1  0.792508  0.892931  0.585673  0  .  1
   O  O18  1  0.845305  0.462890  0.841212  0  .  1
 
