#\#CIF1.1
##########################################################################
#               Crystallographic Information Format file 
#               Produced by PyCifRW module
# 
#  This is a CIF file.  CIF has been adopted by the International
#  Union of Crystallography as the standard for data archiving and 
#  transmission.
#
#  For information on this file format, follow the CIF links at
#  http://www.iucr.org
##########################################################################

data_Li4Fe2O5
_symmetry_space_group_name_H-M          'P 1'
_cell_length_a                          11.2654778926
_cell_length_b                          5.59099856
_cell_length_c                          7.76355145174
_cell_angle_alpha                       90.0
_cell_angle_beta                        103.502099545
_cell_angle_gamma                       90.0
_chemical_name_systematic               'Generated by pymatgen'
_symmetry_Int_Tables_number             1
_chemical_formula_structural            Li4Fe2O5
_chemical_formula_sum                   'Li16 Fe8 O20'
_cell_volume                            475.474390517
_cell_formula_units_Z                   4
loop_
  _symmetry_equiv_pos_site_id
  _symmetry_equiv_pos_as_xyz
   1  'x, y, z'
 
loop_
  _atom_site_type_symbol
  _atom_site_label
  _atom_site_symmetry_multiplicity
  _atom_site_fract_x
  _atom_site_fract_y
  _atom_site_fract_z
  _atom_site_attached_hydrogens
  _atom_site_B_iso_or_equiv
  _atom_site_occupancy
   Li  Li1  1  0.012891  0.063169  0.842988  0  .  1
   Li  Li2  1  0.020068  0.450811  0.320634  0  .  1
   Li  Li3  1  0.102723  0.893186  0.526313  0  .  1
   Li  Li4  1  0.115046  0.567280  0.972382  0  .  1
   Li  Li5  1  0.397277  0.393186  0.973687  0  .  1
   Li  Li6  1  0.384954  0.067280  0.527618  0  .  1
   Li  Li7  1  0.487109  0.563169  0.657012  0  .  1
   Li  Li8  1  0.520068  0.049189  0.820634  0  .  1
   Li  Li9  1  0.479932  0.950811  0.179366  0  .  1
   Li  Li10  1  0.512891  0.436831  0.342988  0  .  1
   Li  Li11  1  0.615046  0.932720  0.472382  0  .  1
   Li  Li12  1  0.602723  0.606814  0.026313  0  .  1
   Li  Li13  1  0.884954  0.432720  0.027618  0  .  1
   Li  Li14  1  0.897277  0.106814  0.473687  0  .  1
   Li  Li15  1  0.979932  0.549189  0.679366  0  .  1
   Li  Li16  1  0.987109  0.936831  0.157012  0  .  1
   Fe  Fe17  1  0.198876  0.371365  0.639279  0  .  1
   Fe  Fe18  1  0.301124  0.871365  0.860721  0  .  1
   Fe  Fe19  1  0.205429  0.216960  0.201146  0  .  1
   Fe  Fe20  1  0.294571  0.716960  0.298854  0  .  1
   Fe  Fe21  1  0.705428  0.283040  0.701146  0  .  1
   Fe  Fe22  1  0.794572  0.783040  0.798854  0  .  1
   Fe  Fe23  1  0.698876  0.128635  0.139279  0  .  1
   Fe  Fe24  1  0.801124  0.628635  0.360721  0  .  1
   O  O25  1  0.049892  0.220042  0.631213  0  .  1
   O  O26  1  0.162382  0.678888  0.742639  0  .  1
   O  O27  1  0.041392  0.252062  0.068260  0  .  1
   O  O28  1  0.214543  0.980380  0.388387  0  .  1
   O  O29  1  0.200749  0.466859  0.402301  0  .  1
   O  O30  1  0.337618  0.178888  0.757361  0  .  1
   O  O31  1  0.299251  0.966859  0.097699  0  .  1
   O  O32  1  0.285457  0.480380  0.111613  0  .  1
   O  O33  1  0.450108  0.720042  0.868787  0  .  1
   O  O34  1  0.458608  0.752062  0.431740  0  .  1
   O  O35  1  0.541392  0.247938  0.568260  0  .  1
   O  O36  1  0.549892  0.279958  0.131213  0  .  1
   O  O37  1  0.714543  0.519620  0.888387  0  .  1
   O  O38  1  0.700749  0.033141  0.902301  0  .  1
   O  O39  1  0.662382  0.821112  0.242639  0  .  1
   O  O40  1  0.799251  0.533141  0.597699  0  .  1
   O  O41  1  0.785457  0.019620  0.611613  0  .  1
   O  O42  1  0.958608  0.747938  0.931740  0  .  1
   O  O43  1  0.837618  0.321112  0.257361  0  .  1
   O  O44  1  0.950108  0.779958  0.368787  0  .  1
 
