#\#CIF1.1
##########################################################################
#               Crystallographic Information Format file 
#               Produced by PyCifRW module
# 
#  This is a CIF file.  CIF has been adopted by the International
#  Union of Crystallography as the standard for data archiving and 
#  transmission.
#
#  For information on this file format, follow the CIF links at
#  http://www.iucr.org
##########################################################################

data_Li4Fe3O8
_symmetry_space_group_name_H-M          'P 1'
_cell_length_a                          6.05051034259
_cell_length_b                          10.6722711414
_cell_length_c                          10.6783377886
_cell_angle_alpha                       30.8747771992
_cell_angle_beta                        28.0129074609
_cell_angle_gamma                       50.7422637087
_chemical_name_systematic               'Generated by pymatgen'
_symmetry_Int_Tables_number             1
_chemical_formula_structural            Li4Fe3O8
_chemical_formula_sum                   'Li4 Fe3 O8'
_cell_volume                            142.121998102
_cell_formula_units_Z                   1
loop_
  _symmetry_equiv_pos_site_id
  _symmetry_equiv_pos_as_xyz
   1  'x, y, z'
 
loop_
  _atom_site_type_symbol
  _atom_site_label
  _atom_site_symmetry_multiplicity
  _atom_site_fract_x
  _atom_site_fract_y
  _atom_site_fract_z
  _atom_site_attached_hydrogens
  _atom_site_B_iso_or_equiv
  _atom_site_occupancy
   Li  Li1  1  0.001538  0.000573  0.000039  0  .  1
   Li  Li2  1  0.358328  0.356971  0.000212  0  .  1
   Li  Li3  1  0.500974  0.499769  0.000076  0  .  1
   Li  Li4  1  0.641631  0.641064  0.000050  0  .  1
   Fe  Fe5  1  0.501333  0.999676  -0.000006  0  .  1
   Fe  Fe6  1  0.501377  0.500097  0.499571  0  .  1
   Fe  Fe7  1  0.500608  0.999705  0.500353  0  .  1
   O  O8  1  0.233984  0.233176  0.999959  0  .  1
   O  O9  1  0.219211  0.743814  0.999987  0  .  1
   O  O10  1  0.218916  0.218120  0.525886  0  .  1
   O  O11  1  0.270917  0.744088  0.473950  0  .  1
   O  O12  1  0.767928  0.766112  0.999933  0  .  1
   O  O13  1  0.781755  0.256992  0.999960  0  .  1
   O  O14  1  0.781943  0.780271  0.476500  0  .  1
   O  O15  1  0.734713  0.256693  0.523646  0  .  1
 
