#\#CIF1.1
##########################################################################
#               Crystallographic Information Format file 
#               Produced by PyCifRW module
# 
#  This is a CIF file.  CIF has been adopted by the International
#  Union of Crystallography as the standard for data archiving and 
#  transmission.
#
#  For information on this file format, follow the CIF links at
#  http://www.iucr.org
##########################################################################

data_Li4MnO3
_symmetry_space_group_name_H-M          'P 1'
_cell_length_a                          5.1292646392
_cell_length_b                          5.79950494687
_cell_length_c                          6.85350179776
_cell_angle_alpha                       71.5187272929
_cell_angle_beta                        89.9416448648
_cell_angle_gamma                       63.7857686156
_chemical_name_systematic               'Generated by pymatgen'
_symmetry_Int_Tables_number             1
_chemical_formula_structural            Li4MnO3
_chemical_formula_sum                   'Li8 Mn2 O6'
_cell_volume                            171.140494653
_cell_formula_units_Z                   2
loop_
  _symmetry_equiv_pos_site_id
  _symmetry_equiv_pos_as_xyz
   1  'x, y, z'
 
loop_
  _atom_site_type_symbol
  _atom_site_label
  _atom_site_symmetry_multiplicity
  _atom_site_fract_x
  _atom_site_fract_y
  _atom_site_fract_z
  _atom_site_attached_hydrogens
  _atom_site_B_iso_or_equiv
  _atom_site_occupancy
   Li  Li1  1  0.972805  0.763398  0.924117  0  .  1
   Li  Li2  1  0.264608  0.760677  0.422554  0  .  1
   Li  Li3  1  0.882494  0.549051  0.641744  0  .  1
   Li  Li4  1  0.512268  0.411932  0.830617  0  .  1
   Li  Li5  1  0.566868  0.549944  0.141940  0  .  1
   Li  Li6  1  0.075876  0.408278  0.331382  0  .  1
   Li  Li7  1  0.712806  0.271041  0.532133  0  .  1
   Li  Li8  1  0.013064  0.274497  0.031334  0  .  1
   Mn  Mn9  1  0.335029  0.031094  0.740825  0  .  1
   Mn  Mn10  1  0.632719  0.030927  0.239603  0  .  1
   O  O11  1  0.676525  0.665468  0.862395  0  .  1
   O  O12  1  0.659519  0.663531  0.361953  0  .  1
   O  O13  1  0.294496  0.406287  0.582552  0  .  1
   O  O14  1  0.929939  0.129523  0.823566  0  .  1
   O  O15  1  0.298383  0.407238  0.082812  0  .  1
   O  O16  1  0.941164  0.126304  0.323877  0  .  1
 
