#\#CIF1.1
##########################################################################
#               Crystallographic Information Format file 
#               Produced by PyCifRW module
# 
#  This is a CIF file.  CIF has been adopted by the International
#  Union of Crystallography as the standard for data archiving and 
#  transmission.
#
#  For information on this file format, follow the CIF links at
#  http://www.iucr.org
##########################################################################

data_Li4Mn13O24
_symmetry_space_group_name_H-M          'P 1'
_cell_length_a                          6.03020012917
_cell_length_b                          17.9748917884
_cell_length_c                          10.2545142986
_cell_angle_alpha                       30.109578671
_cell_angle_beta                        54.4558995199
_cell_angle_gamma                       59.280498349
_chemical_name_systematic               'Generated by pymatgen'
_symmetry_Int_Tables_number             1
_chemical_formula_structural            Li4Mn13O24
_chemical_formula_sum                   'Li4 Mn13 O24'
_cell_volume                            453.611082859
_cell_formula_units_Z                   1
loop_
  _symmetry_equiv_pos_site_id
  _symmetry_equiv_pos_as_xyz
   1  'x, y, z'
 
loop_
  _atom_site_type_symbol
  _atom_site_label
  _atom_site_symmetry_multiplicity
  _atom_site_fract_x
  _atom_site_fract_y
  _atom_site_fract_z
  _atom_site_attached_hydrogens
  _atom_site_B_iso_or_equiv
  _atom_site_occupancy
   Li  Li1  1  0.131946  0.336699  0.119204  0  .  1
   Li  Li2  1  0.127353  0.664271  0.127806  0  .  1
   Li  Li3  1  0.866471  0.332286  0.878549  0  .  1
   Li  Li4  1  0.869316  0.669521  0.873626  0  .  1
   Mn  Mn5  1  0.493714  0.165804  0.007124  0  .  1
   Mn  Mn6  1  0.497547  0.999645  0.501414  0  .  1
   Mn  Mn7  1  0.004026  0.340166  0.488568  0  .  1
   Mn  Mn8  1  0.503417  0.510916  0.987548  0  .  1
   Mn  Mn9  1  0.500517  0.176269  0.481688  0  .  1
   Mn  Mn10  1  0.997301  0.001724  0.498091  0  .  1
   Mn  Mn11  1  0.501642  0.341471  0.484832  0  .  1
   Mn  Mn12  1  0.499020  0.823550  0.009203  0  .  1
   Mn  Mn13  1  0.493591  0.492604  0.513548  0  .  1
   Mn  Mn14  1  0.496871  0.660573  0.507670  0  .  1
   Mn  Mn15  1  0.496002  0.835564  0.503006  0  .  1
   Mn  Mn16  1  0.004176  0.659412  0.507380  0  .  1
   Mn  Mn17  1  0.865905  0.000311  0.878789  0  .  1
   O  O18  1  0.267979  0.003149  0.266127  0  .  1
   O  O19  1  0.276445  0.151998  0.260412  0  .  1
   O  O20  1  0.695978  0.999140  0.268906  0  .  1
   O  O21  1  0.276029  0.352543  0.230823  0  .  1
   O  O22  1  0.279148  0.202831  0.675051  0  .  1
   O  O23  1  0.287804  0.495697  0.238820  0  .  1
   O  O24  1  0.714742  0.149433  0.289158  0  .  1
   O  O25  1  0.721797  0.355784  0.231084  0  .  1
   O  O26  1  0.291206  0.330947  0.741219  0  .  1
   O  O27  1  0.256367  0.642991  0.295777  0  .  1
   O  O28  1  0.711863  0.181981  0.745007  0  .  1
   O  O29  1  0.274734  0.498771  0.729580  0  .  1
   O  O30  1  0.267584  0.797373  0.281003  0  .  1
   O  O31  1  0.729783  0.478053  0.298287  0  .  1
   O  O32  1  0.727289  0.326332  0.748216  0  .  1
   O  O33  1  0.712226  0.648639  0.278401  0  .  1
   O  O34  1  0.290829  0.674336  0.736388  0  .  1
   O  O35  1  0.275768  0.852344  0.712261  0  .  1
   O  O36  1  0.732830  0.522861  0.733779  0  .  1
   O  O37  1  0.724217  0.824266  0.286343  0  .  1
   O  O38  1  0.728292  0.670686  0.734543  0  .  1
   O  O39  1  0.277837  0.993601  0.744579  0  .  1
   O  O40  1  0.720673  0.849688  0.739112  0  .  1
   O  O41  1  0.741746  0.008689  0.720204  0  .  1
 
