#\#CIF1.1
##########################################################################
#               Crystallographic Information Format file 
#               Produced by PyCifRW module
# 
#  This is a CIF file.  CIF has been adopted by the International
#  Union of Crystallography as the standard for data archiving and 
#  transmission.
#
#  For information on this file format, follow the CIF links at
#  http://www.iucr.org
##########################################################################

data_Li4Mn7O12
_symmetry_space_group_name_H-M          'P 1'
_cell_length_a                          5.24574041209
_cell_length_b                          13.8834455757
_cell_length_c                          10.0208398504
_cell_angle_alpha                       98.5493761898
_cell_angle_beta                        95.4002500111
_cell_angle_gamma                       101.747783772
_chemical_name_systematic               'Generated by pymatgen'
_symmetry_Int_Tables_number             1
_chemical_formula_structural            Li4Mn7O12
_chemical_formula_sum                   'Li12 Mn21 O36'
_cell_volume                            700.725478705
_cell_formula_units_Z                   3
loop_
  _symmetry_equiv_pos_site_id
  _symmetry_equiv_pos_as_xyz
   1  'x, y, z'
 
loop_
  _atom_site_type_symbol
  _atom_site_label
  _atom_site_symmetry_multiplicity
  _atom_site_fract_x
  _atom_site_fract_y
  _atom_site_fract_z
  _atom_site_attached_hydrogens
  _atom_site_B_iso_or_equiv
  _atom_site_occupancy
   Li  Li1  1  0.781665  0.305386  0.248960  0  .  1
   Li  Li2  1  0.949056  0.891452  0.493534  0  .  1
   Li  Li3  1  0.608701  0.218110  0.498521  0  .  1
   Li  Li4  1  0.718435  0.445495  0.488352  0  .  1
   Li  Li5  1  0.271838  0.050262  0.009441  0  .  1
   Li  Li6  1  0.733070  0.946929  0.007928  0  .  1
   Li  Li7  1  0.399532  0.285144  0.006149  0  .  1
   Li  Li8  1  0.450626  0.639149  0.248321  0  .  1
   Li  Li9  1  0.275993  0.555035  0.498801  0  .  1
   Li  Li10  1  0.367104  0.783534  0.488770  0  .  1
   Li  Li11  1  0.059408  0.611343  0.005560  0  .  1
   Li  Li12  1  0.112474  0.974026  0.258033  0  .  1
   Mn  Mn13  1  0.886608  0.025174  0.749049  0  .  1
   Mn  Mn14  1  0.836182  0.170421  0.008402  0  .  1
   Mn  Mn15  1  0.903196  0.524475  0.248404  0  .  1
   Mn  Mn16  1  0.677653  0.083106  0.250125  0  .  1
   Mn  Mn17  1  0.827641  0.669816  0.491478  0  .  1
   Mn  Mn18  1  0.567271  0.361942  0.752096  0  .  1
   Mn  Mn19  1  0.661877  0.584436  0.750505  0  .  1
   Mn  Mn20  1  0.770170  0.807944  0.754566  0  .  1
   Mn  Mn21  1  0.492947  0.498305  0.008658  0  .  1
   Mn  Mn22  1  0.428983  0.137636  0.749118  0  .  1
   Mn  Mn23  1  0.561427  0.861529  0.244741  0  .  1
   Mn  Mn24  1  0.237227  0.191366  0.253912  0  .  1
   Mn  Mn25  1  0.328884  0.416375  0.249000  0  .  1
   Mn  Mn26  1  0.494511  0.003378  0.493736  0  .  1
   Mn  Mn27  1  0.157361  0.331084  0.492939  0  .  1
   Mn  Mn28  1  0.219853  0.692023  0.748352  0  .  1
   Mn  Mn29  1  0.326081  0.913892  0.750481  0  .  1
   Mn  Mn30  1  0.999367  0.249984  0.751195  0  .  1
   Mn  Mn31  1  0.157457  0.833219  0.006982  0  .  1
   Mn  Mn32  1  0.107568  0.473006  0.751755  0  .  1
   Mn  Mn33  1  0.995271  0.752852  0.247106  0  .  1
   O  O34  1  0.947488  0.074238  0.130111  0  .  1
   O  O35  1  0.935372  0.206458  0.362210  0  .  1
   O  O36  1  0.862277  0.355354  0.633800  0  .  1
   O  O37  1  0.699740  0.122775  0.629021  0  .  1
   O  O38  1  0.984461  0.581162  0.623526  0  .  1
   O  O39  1  0.761447  0.605628  0.124878  0  .  1
   O  O40  1  0.677644  0.245902  0.871373  0  .  1
   O  O41  1  0.887927  0.844311  0.133139  0  .  1
   O  O42  1  0.526118  0.169670  0.138714  0  .  1
   O  O43  1  0.802422  0.487228  0.850802  0  .  1
   O  O44  1  0.936321  0.700758  0.860377  0  .  1
   O  O45  1  0.602166  0.032808  0.866664  0  .  1
   O  O46  1  0.594557  0.408330  0.130656  0  .  1
   O  O47  1  0.707298  0.769042  0.355583  0  .  1
   O  O48  1  0.400616  0.099125  0.361661  0  .  1
   O  O49  1  0.608930  0.540956  0.369619  0  .  1
   O  O50  1  0.776878  0.984278  0.354820  0  .  1
   O  O51  1  0.458048  0.330436  0.367772  0  .  1
   O  O52  1  0.520556  0.677644  0.639952  0  .  1
   O  O53  1  0.194045  0.011456  0.646896  0  .  1
   O  O54  1  0.393810  0.465776  0.634230  0  .  1
   O  O55  1  0.651428  0.913014  0.624581  0  .  1
   O  O56  1  0.322749  0.253142  0.634419  0  .  1
   O  O57  1  0.438792  0.953869  0.130489  0  .  1
   O  O58  1  0.344045  0.579751  0.880837  0  .  1
   O  O59  1  0.107925  0.281435  0.134572  0  .  1
   O  O60  1  0.201336  0.510119  0.146061  0  .  1
   O  O61  1  0.429413  0.816949  0.863009  0  .  1
   O  O62  1  0.133217  0.142126  0.862783  0  .  1
   O  O63  1  0.296487  0.376915  0.872439  0  .  1
   O  O64  1  0.284383  0.750410  0.136050  0  .  1
   O  O65  1  0.046657  0.433787  0.363091  0  .  1
   O  O66  1  0.267222  0.885634  0.382578  0  .  1
   O  O67  1  0.121673  0.667350  0.364459  0  .  1
   O  O68  1  0.077319  0.796785  0.625335  0  .  1
   O  O69  1  0.026404  0.922814  0.890886  0  .  1
 
