#\#CIF1.1
##########################################################################
#               Crystallographic Information Format file 
#               Produced by PyCifRW module
# 
#  This is a CIF file.  CIF has been adopted by the International
#  Union of Crystallography as the standard for data archiving and 
#  transmission.
#
#  For information on this file format, follow the CIF links at
#  http://www.iucr.org
##########################################################################

data_Li4Ti15O32
_symmetry_space_group_name_H-M          'P 1'
_cell_length_a                          5.97799115
_cell_length_b                          5.97799129516
_cell_length_c                          19.680462946
_cell_angle_alpha                       81.2643234561
_cell_angle_beta                        98.7356756174
_cell_angle_gamma                       119.999999141
_chemical_name_systematic               'Generated by pymatgen'
_symmetry_Int_Tables_number             1
_chemical_formula_structural            Li4Ti15O32
_chemical_formula_sum                   'Li4 Ti15 O32'
_cell_volume                            599.643636323
_cell_formula_units_Z                   1
loop_
  _symmetry_equiv_pos_site_id
  _symmetry_equiv_pos_as_xyz
   1  'x, y, z'
 
loop_
  _atom_site_type_symbol
  _atom_site_label
  _atom_site_symmetry_multiplicity
  _atom_site_fract_x
  _atom_site_fract_y
  _atom_site_fract_z
  _atom_site_attached_hydrogens
  _atom_site_B_iso_or_equiv
  _atom_site_occupancy
   Li  Li1  1  0.188053  0.811947  0.564159  0  .  1
   Li  Li2  1  0.249474  0.750526  0.748423  0  .  1
   Li  Li3  1  0.437970  0.562030  0.313909  0  .  1
   Li  Li4  1  0.499486  0.500514  0.498457  0  .  1
   Ti  Ti5  1  0.094972  0.905028  0.284916  0  .  1
   Ti  Ti6  1  0.204787  0.276881  0.651025  0  .  1
   Ti  Ti7  1  0.470449  0.529551  0.906128  0  .  1
   Ti  Ti8  1  0.216996  0.783004  0.156276  0  .  1
   Ti  Ti9  1  0.216996  0.277715  0.156276  0  .  1
   Ti  Ti10  1  0.343734  0.656266  0.031204  0  .  1
   Ti  Ti11  1  0.470449  0.034769  0.906128  0  .  1
   Ti  Ti12  1  0.592529  0.407471  0.777587  0  .  1
   Ti  Ti13  1  0.723119  0.795213  0.651025  0  .  1
   Ti  Ti14  1  0.722285  0.783004  0.156276  0  .  1
   Ti  Ti15  1  0.965231  0.529551  0.906128  0  .  1
   Ti  Ti16  1  0.723119  0.276881  0.651025  0  .  1
   Ti  Ti17  1  0.482724  0.035593  0.411537  0  .  1
   Ti  Ti18  1  0.964407  0.517276  0.411537  0  .  1
   Ti  Ti19  1  0.964407  0.035593  0.411537  0  .  1
   O  O20  1  0.029120  0.970880  0.605431  0  .  1
   O  O21  1  0.176418  0.823582  0.964278  0  .  1
   O  O22  1  0.153569  0.846431  0.460709  0  .  1
   O  O23  1  0.034849  0.965151  0.104548  0  .  1
   O  O24  1  0.029120  0.452808  0.605431  0  .  1
   O  O25  1  0.176418  0.388558  0.964278  0  .  1
   O  O26  1  0.283945  0.716055  0.851835  0  .  1
   O  O27  1  0.611442  0.823582  0.964278  0  .  1
   O  O28  1  0.262057  0.737943  0.345661  0  .  1
   O  O29  1  0.140307  0.341583  0.457139  0  .  1
   O  O30  1  0.547192  0.970880  0.605431  0  .  1
   O  O31  1  0.076198  0.489024  0.098149  0  .  1
   O  O32  1  0.323550  0.237463  0.848624  0  .  1
   O  O33  1  0.425428  0.574572  0.716855  0  .  1
   O  O34  1  0.533950  0.466050  0.601850  0  .  1
   O  O35  1  0.403543  0.596457  0.210630  0  .  1
   O  O36  1  0.652577  0.347423  0.957732  0  .  1
   O  O37  1  0.262057  0.178454  0.345661  0  .  1
   O  O38  1  0.510976  0.923802  0.098149  0  .  1
   O  O39  1  0.658417  0.859693  0.457139  0  .  1
   O  O40  1  0.762537  0.676450  0.848624  0  .  1
   O  O41  1  0.425428  0.134000  0.716855  0  .  1
   O  O42  1  0.865999  0.574572  0.716855  0  .  1
   O  O43  1  0.762537  0.237463  0.848624  0  .  1
   O  O44  1  0.510976  0.489024  0.098149  0  .  1
   O  O45  1  0.363817  0.075021  0.213776  0  .  1
   O  O46  1  0.658417  0.341583  0.457139  0  .  1
   O  O47  1  0.821546  0.737943  0.345661  0  .  1
   O  O48  1  0.924979  0.636183  0.213776  0  .  1
   O  O49  1  0.901975  0.098025  0.705924  0  .  1
   O  O50  1  0.785547  0.214453  0.356642  0  .  1
   O  O51  1  0.924979  0.075021  0.213776  0  .  1
 
