#\#CIF1.1
##########################################################################
#               Crystallographic Information Format file 
#               Produced by PyCifRW module
# 
#  This is a CIF file.  CIF has been adopted by the International
#  Union of Crystallography as the standard for data archiving and 
#  transmission.
#
#  For information on this file format, follow the CIF links at
#  http://www.iucr.org
##########################################################################

data_Li4Ti3O8
_symmetry_space_group_name_H-M          'P 1'
_cell_length_a                          5.90712976783
_cell_length_b                          5.88760143204
_cell_length_c                          5.90712957552
_cell_angle_alpha                       120.109777935
_cell_angle_beta                        60.0000027921
_cell_angle_gamma                       120.109776333
_chemical_name_systematic               'Generated by pymatgen'
_symmetry_Int_Tables_number             1
_chemical_formula_structural            Li4Ti3O8
_chemical_formula_sum                   'Li4 Ti3 O8'
_cell_volume                            145.028651763
_cell_formula_units_Z                   1
loop_
  _symmetry_equiv_pos_site_id
  _symmetry_equiv_pos_as_xyz
   1  'x, y, z'
 
loop_
  _atom_site_type_symbol
  _atom_site_label
  _atom_site_symmetry_multiplicity
  _atom_site_fract_x
  _atom_site_fract_y
  _atom_site_fract_z
  _atom_site_attached_hydrogens
  _atom_site_B_iso_or_equiv
  _atom_site_occupancy
   Li  Li1  1  0.125000  0.875000  0.625000  0  .  1
   Li  Li2  1  0.125000  0.875000  0.125000  0  .  1
   Li  Li3  1  0.625000  0.875000  0.625000  0  .  1
   Li  Li4  1  0.625000  0.875000  0.125000  0  .  1
   Ti  Ti5  1  0.125000  0.375000  0.625000  0  .  1
   Ti  Ti6  1  0.625000  0.375000  0.625000  0  .  1
   Ti  Ti7  1  0.625000  0.375000  0.125000  0  .  1
   O  O8  1  0.379083  0.137248  0.379083  0  .  1
   O  O9  1  0.411192  0.151826  0.870317  0  .  1
   O  O10  1  0.379683  0.598174  0.838808  0  .  1
   O  O11  1  0.379683  0.598174  0.379683  0  .  1
   O  O12  1  0.870317  0.151826  0.870317  0  .  1
   O  O13  1  0.870317  0.151826  0.411192  0  .  1
   O  O14  1  0.838808  0.598174  0.379683  0  .  1
   O  O15  1  0.870917  0.612752  0.870917  0  .  1
 
