#\#CIF1.1
##########################################################################
#               Crystallographic Information Format file 
#               Produced by PyCifRW module
# 
#  This is a CIF file.  CIF has been adopted by the International
#  Union of Crystallography as the standard for data archiving and 
#  transmission.
#
#  For information on this file format, follow the CIF links at
#  http://www.iucr.org
##########################################################################

data_Li4TiO4
_symmetry_space_group_name_H-M          'P 1'
_cell_length_a                          9.20675571371
_cell_length_b                          9.54164582
_cell_length_c                          9.31037710255
_cell_angle_alpha                       90.0
_cell_angle_beta                        90.6475051242
_cell_angle_gamma                       90.0
_chemical_name_systematic               'Generated by pymatgen'
_symmetry_Int_Tables_number             1
_chemical_formula_structural            Li4TiO4
_chemical_formula_sum                   'Li32 Ti8 O32'
_cell_volume                            817.842075732
_cell_formula_units_Z                   8
loop_
  _symmetry_equiv_pos_site_id
  _symmetry_equiv_pos_as_xyz
   1  'x, y, z'
 
loop_
  _atom_site_type_symbol
  _atom_site_label
  _atom_site_symmetry_multiplicity
  _atom_site_fract_x
  _atom_site_fract_y
  _atom_site_fract_z
  _atom_site_attached_hydrogens
  _atom_site_B_iso_or_equiv
  _atom_site_occupancy
   Li  Li1  1  0.157159  0.110715  0.391151  0  .  1
   Li  Li2  1  0.157159  0.389285  0.891151  0  .  1
   Li  Li3  1  0.211072  0.852278  0.918825  0  .  1
   Li  Li4  1  0.211072  0.647722  0.418825  0  .  1
   Li  Li5  1  0.366056  0.361182  0.096452  0  .  1
   Li  Li6  1  0.366056  0.138818  0.596452  0  .  1
   Li  Li7  1  0.351964  0.131345  0.853947  0  .  1
   Li  Li8  1  0.351964  0.368655  0.353947  0  .  1
   Li  Li9  1  0.354201  0.899013  0.320676  0  .  1
   Li  Li10  1  0.354201  0.600987  0.820676  0  .  1
   Li  Li11  1  0.403042  0.107001  0.127219  0  .  1
   Li  Li12  1  0.403042  0.392999  0.627219  0  .  1
   Li  Li13  1  0.551824  0.609387  0.381630  0  .  1
   Li  Li14  1  0.551824  0.890613  0.881630  0  .  1
   Li  Li15  1  0.644657  0.089726  0.681526  0  .  1
   Li  Li16  1  0.644657  0.410274  0.181526  0  .  1
   Li  Li17  1  0.630581  0.649876  0.633718  0  .  1
   Li  Li18  1  0.630581  0.850124  0.133718  0  .  1
   Li  Li19  1  0.642737  0.627053  0.905748  0  .  1
   Li  Li20  1  0.642737  0.872947  0.405748  0  .  1
   Li  Li21  1  0.664158  0.116805  0.102954  0  .  1
   Li  Li22  1  0.664158  0.383195  0.602954  0  .  1
   Li  Li23  1  0.907124  0.605325  0.080313  0  .  1
   Li  Li24  1  0.907124  0.894675  0.580313  0  .  1
   Li  Li25  1  0.869802  0.370732  0.399073  0  .  1
   Li  Li26  1  0.869802  0.129268  0.899073  0  .  1
   Li  Li27  1  0.897755  0.150428  0.638466  0  .  1
   Li  Li28  1  0.897755  0.349572  0.138466  0  .  1
   Li  Li29  1  0.945665  0.633901  0.681868  0  .  1
   Li  Li30  1  0.945665  0.866099  0.181868  0  .  1
   Li  Li31  1  0.900111  0.120348  0.359643  0  .  1
   Li  Li32  1  0.900111  0.379652  0.859643  0  .  1
   Ti  Ti33  1  0.128063  0.139900  0.106152  0  .  1
   Ti  Ti34  1  0.128063  0.360100  0.606152  0  .  1
   Ti  Ti35  1  0.378276  0.628260  0.119532  0  .  1
   Ti  Ti36  1  0.378276  0.871740  0.619532  0  .  1
   Ti  Ti37  1  0.620678  0.147486  0.384053  0  .  1
   Ti  Ti38  1  0.620678  0.352514  0.884053  0  .  1
   Ti  Ti39  1  0.854730  0.636863  0.380482  0  .  1
   Ti  Ti40  1  0.854730  0.863137  0.880482  0  .  1
   O  O41  1  0.007634  0.240774  0.495601  0  .  1
   O  O42  1  0.007634  0.259226  0.995601  0  .  1
   O  O43  1  0.023785  0.040213  0.234891  0  .  1
   O  O44  1  0.023785  0.459787  0.734891  0  .  1
   O  O45  1  0.253792  0.034603  0.001234  0  .  1
   O  O46  1  0.253792  0.465397  0.501234  0  .  1
   O  O47  1  0.262968  0.230488  0.220183  0  .  1
   O  O48  1  0.262968  0.269512  0.720183  0  .  1
   O  O49  1  0.280638  0.733756  0.244434  0  .  1
   O  O50  1  0.280638  0.766244  0.744434  0  .  1
   O  O51  1  0.281527  0.513447  0.991646  0  .  1
   O  O52  1  0.281527  0.986553  0.491647  0  .  1
   O  O53  1  0.473895  0.491454  0.231090  0  .  1
   O  O54  1  0.473895  0.008546  0.731090  0  .  1
   O  O55  1  0.505680  0.764464  0.509633  0  .  1
   O  O56  1  0.505680  0.735536  0.009633  0  .  1
   O  O57  1  0.513864  0.241479  0.003428  0  .  1
   O  O58  1  0.513864  0.258521  0.503428  0  .  1
   O  O59  1  0.538164  0.017393  0.260666  0  .  1
   O  O60  1  0.538164  0.482607  0.760666  0  .  1
   O  O61  1  0.746649  0.045486  0.495914  0  .  1
   O  O62  1  0.746649  0.454514  0.995914  0  .  1
   O  O63  1  0.744974  0.246086  0.268300  0  .  1
   O  O64  1  0.744974  0.253914  0.768300  0  .  1
   O  O65  1  0.753635  0.765612  0.273439  0  .  1
   O  O66  1  0.753635  0.734388  0.773439  0  .  1
   O  O67  1  0.729989  0.527686  0.487822  0  .  1
   O  O68  1  0.729989  0.972314  0.987822  0  .  1
   O  O69  1  0.930958  0.506437  0.258988  0  .  1
   O  O70  1  0.930958  0.993563  0.758988  0  .  1
   O  O71  1  0.979191  0.773682  0.002779  0  .  1
   O  O72  1  0.979191  0.726318  0.502779  0  .  1
 
