#\#CIF1.1
##########################################################################
#               Crystallographic Information Format file 
#               Produced by PyCifRW module
# 
#  This is a CIF file.  CIF has been adopted by the International
#  Union of Crystallography as the standard for data archiving and 
#  transmission.
#
#  For information on this file format, follow the CIF links at
#  http://www.iucr.org
##########################################################################

data_Li4V11O22
_symmetry_space_group_name_H-M          'P 1'
_cell_length_a                          10.1579261485
_cell_length_b                          5.12366936978
_cell_length_c                          9.01745260905
_cell_angle_alpha                       84.7145985198
_cell_angle_beta                        114.215778091
_cell_angle_gamma                       85.4971360314
_chemical_name_systematic               'Generated by pymatgen'
_symmetry_Int_Tables_number             1
_chemical_formula_structural            Li4V11O22
_chemical_formula_sum                   'Li4 V11 O22'
_cell_volume                            422.695231454
_cell_formula_units_Z                   1
loop_
  _symmetry_equiv_pos_site_id
  _symmetry_equiv_pos_as_xyz
   1  'x, y, z'
 
loop_
  _atom_site_type_symbol
  _atom_site_label
  _atom_site_symmetry_multiplicity
  _atom_site_fract_x
  _atom_site_fract_y
  _atom_site_fract_z
  _atom_site_attached_hydrogens
  _atom_site_B_iso_or_equiv
  _atom_site_occupancy
   Li  Li1  1  0.001260  0.999118  0.001507  0  .  1
   Li  Li2  1  0.190265  0.902325  0.380333  0  .  1
   Li  Li3  1  0.539284  0.717570  0.087673  0  .  1
   Li  Li4  1  0.814614  0.128953  0.624665  0  .  1
   V  V5  1  0.320033  0.095564  0.138746  0  .  1
   V  V6  1  0.037978  0.720259  0.594663  0  .  1
   V  V7  1  0.157005  0.177631  0.767428  0  .  1
   V  V8  1  0.409748  0.543454  0.321910  0  .  1
   V  V9  1  0.775745  0.372099  0.037017  0  .  1
   V  V10  1  0.220869  0.633949  0.959190  0  .  1
   V  V11  1  0.506164  0.995904  0.495575  0  .  1
   V  V12  1  0.583485  0.452454  0.683513  0  .  1
   V  V13  1  0.858103  0.823422  0.237394  0  .  1
   V  V14  1  0.957633  0.277889  0.406067  0  .  1
   V  V15  1  0.677898  0.909970  0.864046  0  .  1
   O  O16  1  0.048940  0.622732  0.400085  0  .  1
   O  O17  1  0.218749  0.780143  0.159345  0  .  1
   O  O18  1  0.137914  0.041019  0.565340  0  .  1
   O  O19  1  0.412576  0.423646  0.128264  0  .  1
   O  O20  1  0.317643  0.214571  0.335035  0  .  1
   O  O21  1  0.037715  0.881893  0.780794  0  .  1
   O  O22  1  0.686646  0.052955  0.069678  0  .  1
   O  O23  1  0.223694  0.493329  0.754126  0  .  1
   O  O24  1  0.494260  0.864366  0.278617  0  .  1
   O  O25  1  0.142074  0.283080  0.975627  0  .  1
   O  O26  1  0.399614  0.675412  0.506671  0  .  1
   O  O27  1  0.593419  0.328777  0.482685  0  .  1
   O  O28  1  0.501635  0.148940  0.699504  0  .  1
   O  O29  1  0.867193  0.678781  0.030060  0  .  1
   O  O30  1  0.769467  0.517760  0.237382  0  .  1
   O  O31  1  0.958011  0.120166  0.203551  0  .  1
   O  O32  1  0.323133  0.943769  0.937547  0  .  1
   O  O33  1  0.679144  0.765315  0.664760  0  .  1
   O  O34  1  0.589879  0.572183  0.891466  0  .  1
   O  O35  1  0.859894  0.952725  0.436022  0  .  1
   O  O36  1  0.778936  0.237377  0.840148  0  .  1
   O  O37  1  0.957760  0.393462  0.611608  0  .  1
 
