#\#CIF1.1
##########################################################################
#               Crystallographic Information Format file 
#               Produced by PyCifRW module
# 
#  This is a CIF file.  CIF has been adopted by the International
#  Union of Crystallography as the standard for data archiving and 
#  transmission.
#
#  For information on this file format, follow the CIF links at
#  http://www.iucr.org
##########################################################################

data_Li4V7O12
_symmetry_space_group_name_H-M          'P 1'
_cell_length_a                          5.20968371952
_cell_length_b                          8.92676578337
_cell_length_c                          9.89365807518
_cell_angle_alpha                       89.9999991471
_cell_angle_beta                        100.24705557
_cell_angle_gamma                       90.0000057398
_chemical_name_systematic               'Generated by pymatgen'
_symmetry_Int_Tables_number             1
_chemical_formula_structural            Li4V7O12
_chemical_formula_sum                   'Li8 V14 O24'
_cell_volume                            452.771925938
_cell_formula_units_Z                   2
loop_
  _symmetry_equiv_pos_site_id
  _symmetry_equiv_pos_as_xyz
   1  'x, y, z'
 
loop_
  _atom_site_type_symbol
  _atom_site_label
  _atom_site_symmetry_multiplicity
  _atom_site_fract_x
  _atom_site_fract_y
  _atom_site_fract_z
  _atom_site_attached_hydrogens
  _atom_site_B_iso_or_equiv
  _atom_site_occupancy
   Li  Li1  1  0.758473  0.080585  0.510601  0  .  1
   Li  Li2  1  0.254321  0.411696  0.993501  0  .  1
   Li  Li3  1  0.505052  0.417134  0.747198  0  .  1
   Li  Li4  1  0.742007  0.421768  0.507715  0  .  1
   Li  Li5  1  0.741527  0.580585  0.989399  0  .  1
   Li  Li6  1  0.994948  0.917134  0.752802  0  .  1
   Li  Li7  1  0.245679  0.911696  0.506499  0  .  1
   Li  Li8  1  0.757993  0.921768  0.992285  0  .  1
   V  V9  1  0.012216  0.083234  0.247811  0  .  1
   V  V10  1  0.000586  0.243139  0.757156  0  .  1
   V  V11  1  0.491173  0.076984  0.752826  0  .  1
   V  V12  1  0.258205  0.260114  0.507237  0  .  1
   V  V13  1  0.500667  0.244553  0.247000  0  .  1
   V  V14  1  0.998711  0.432502  0.253446  0  .  1
   V  V15  1  0.735489  0.252489  0.995904  0  .  1
   V  V16  1  0.008827  0.576984  0.747174  0  .  1
   V  V17  1  0.999333  0.744553  0.253000  0  .  1
   V  V18  1  0.487784  0.583234  0.252189  0  .  1
   V  V19  1  0.241795  0.760114  0.992763  0  .  1
   V  V20  1  0.499414  0.743139  0.742844  0  .  1
   V  V21  1  0.764511  0.752489  0.504096  0  .  1
   V  V22  1  0.501289  0.932502  0.246554  0  .  1
   O  O23  1  0.133370  0.092472  0.632038  0  .  1
   O  O24  1  0.377889  0.089758  0.378531  0  .  1
   O  O25  1  0.101952  0.257557  0.135728  0  .  1
   O  O26  1  0.391528  0.245338  0.873243  0  .  1
   O  O27  1  0.648081  0.087759  0.125212  0  .  1
   O  O28  1  0.846751  0.088460  0.866449  0  .  1
   O  O29  1  0.610623  0.239558  0.627439  0  .  1
   O  O30  1  0.116690  0.399213  0.634261  0  .  1
   O  O31  1  0.380101  0.414527  0.366358  0  .  1
   O  O32  1  0.899554  0.250195  0.370507  0  .  1
   O  O33  1  0.619066  0.420796  0.130101  0  .  1
   O  O34  1  0.122111  0.589758  0.121469  0  .  1
   O  O35  1  0.366630  0.592472  0.867962  0  .  1
   O  O36  1  0.882592  0.405428  0.875103  0  .  1
   O  O37  1  0.108472  0.745338  0.626757  0  .  1
   O  O38  1  0.653249  0.588460  0.633551  0  .  1
   O  O39  1  0.398048  0.757557  0.364272  0  .  1
   O  O40  1  0.851919  0.587759  0.374788  0  .  1
   O  O41  1  0.119899  0.914527  0.133642  0  .  1
   O  O42  1  0.600446  0.750195  0.129493  0  .  1
   O  O43  1  0.889377  0.739558  0.872561  0  .  1
   O  O44  1  0.383310  0.899213  0.865739  0  .  1
   O  O45  1  0.617408  0.905428  0.624897  0  .  1
   O  O46  1  0.880934  0.920796  0.369899  0  .  1
 
