#\#CIF1.1
##########################################################################
#               Crystallographic Information Format file 
#               Produced by PyCifRW module
# 
#  This is a CIF file.  CIF has been adopted by the International
#  Union of Crystallography as the standard for data archiving and 
#  transmission.
#
#  For information on this file format, follow the CIF links at
#  http://www.iucr.org
##########################################################################

data_Li5(NiO2)6
_symmetry_space_group_name_H-M          'P 1'
_cell_length_a                          15.3740006207
_cell_length_b                          9.72887443743
_cell_length_c                          14.6203414245
_cell_angle_alpha                       20.0270319017
_cell_angle_beta                        22.1819188982
_cell_angle_gamma                       16.4388392293
_chemical_name_systematic               'Generated by pymatgen'
_symmetry_Int_Tables_number             1
_chemical_formula_structural            Li5(NiO2)6
_chemical_formula_sum                   'Li5 Ni6 O12'
_cell_volume                            204.837448976
_cell_formula_units_Z                   1
loop_
  _symmetry_equiv_pos_site_id
  _symmetry_equiv_pos_as_xyz
   1  'x, y, z'
 
loop_
  _atom_site_type_symbol
  _atom_site_label
  _atom_site_symmetry_multiplicity
  _atom_site_fract_x
  _atom_site_fract_y
  _atom_site_fract_z
  _atom_site_attached_hydrogens
  _atom_site_B_iso_or_equiv
  _atom_site_occupancy
   Li  Li1  1  0.261551  0.484062  0.249786  0  .  1
   Li  Li2  1  0.080280  0.526073  0.734883  0  .  1
   Li  Li3  1  0.566355  0.523676  0.250972  0  .  1
   Li  Li4  1  0.412206  0.503407  0.751178  0  .  1
   Li  Li5  1  0.756108  0.470044  0.764671  0  .  1
   Ni  Ni6  1  0.000999  -0.005755  0.001426  0  .  1
   Ni  Ni7  1  0.328871  0.009748  0.999711  0  .  1
   Ni  Ni8  1  0.668117  0.998384  0.002140  0  .  1
   Ni  Ni9  1  0.166368  0.003000  0.496467  0  .  1
   Ni  Ni10  1  0.505411  0.991787  0.498303  0  .  1
   Ni  Ni11  1  0.832276  0.000035  0.502138  0  .  1
   O  O12  1  0.291504  0.257085  0.131769  0  .  1
   O  O13  1  0.110745  0.253269  0.644342  0  .  1
   O  O14  1  0.593397  0.303812  0.131751  0  .  1
   O  O15  1  0.229947  0.704082  0.372445  0  .  1
   O  O16  1  0.435570  0.287447  0.631051  0  .  1
   O  O17  1  0.933005  0.279868  0.142348  0  .  1
   O  O18  1  0.059587  0.740618  0.851719  0  .  1
   O  O19  1  0.511758  0.756166  0.388006  0  .  1
   O  O20  1  0.807173  0.250596  0.622306  0  .  1
   O  O21  1  0.402850  0.713568  0.862911  0  .  1
   O  O22  1  0.901132  0.718752  0.359877  0  .  1
   O  O23  1  0.728123  0.730278  0.859799  0  .  1
 
