#\#CIF1.1
##########################################################################
#               Crystallographic Information Format file 
#               Produced by PyCifRW module
# 
#  This is a CIF file.  CIF has been adopted by the International
#  Union of Crystallography as the standard for data archiving and 
#  transmission.
#
#  For information on this file format, follow the CIF links at
#  http://www.iucr.org
##########################################################################

data_Li5Co7O16
_symmetry_space_group_name_H-M          'P 1'
_cell_length_a                          8.07553089742
_cell_length_b                          8.1380833647
_cell_length_c                          8.15291820216
_cell_angle_alpha                       90.0223111552
_cell_angle_beta                        90.0029487484
_cell_angle_gamma                       89.6369296724
_chemical_name_systematic               'Generated by pymatgen'
_symmetry_Int_Tables_number             1
_chemical_formula_structural            Li5Co7O16
_chemical_formula_sum                   'Li10 Co14 O32'
_cell_volume                            535.79363438
_cell_formula_units_Z                   2
loop_
  _symmetry_equiv_pos_site_id
  _symmetry_equiv_pos_as_xyz
   1  'x, y, z'
 
loop_
  _atom_site_type_symbol
  _atom_site_label
  _atom_site_symmetry_multiplicity
  _atom_site_fract_x
  _atom_site_fract_y
  _atom_site_fract_z
  _atom_site_attached_hydrogens
  _atom_site_B_iso_or_equiv
  _atom_site_occupancy
   Li  Li1  1  0.000264  0.499835  0.496789  0  .  1
   Li  Li2  1  0.122268  0.867686  0.376643  0  .  1
   Li  Li3  1  0.249439  0.745341  0.748638  0  .  1
   Li  Li4  1  0.250342  0.254493  0.248636  0  .  1
   Li  Li5  1  0.377445  0.132999  0.877176  0  .  1
   Li  Li6  1  0.499586  0.499943  0.996554  0  .  1
   Li  Li7  1  0.626803  0.620416  0.625493  0  .  1
   Li  Li8  1  0.753041  0.743353  0.251956  0  .  1
   Li  Li9  1  0.747130  0.256532  0.751883  0  .  1
   Li  Li10  1  0.873086  0.379569  0.125527  0  .  1
   Co  Co11  1  0.127438  0.621054  0.120116  0  .  1
   Co  Co12  1  0.121645  0.381352  0.873668  0  .  1
   Co  Co13  1  0.119044  0.124178  0.621127  0  .  1
   Co  Co14  1  0.380878  0.875910  0.120884  0  .  1
   Co  Co15  1  0.378393  0.618656  0.373553  0  .  1
   Co  Co16  1  0.372729  0.378861  0.619968  0  .  1
   Co  Co17  1  0.491842  0.997191  0.501368  0  .  1
   Co  Co18  1  0.624054  0.880349  0.881641  0  .  1
   Co  Co19  1  0.626356  0.121159  0.128410  0  .  1
   Co  Co20  1  0.621970  0.368663  0.373243  0  .  1
   Co  Co21  1  0.878130  0.631539  0.873000  0  .  1
   Co  Co22  1  0.873698  0.878980  0.628207  0  .  1
   Co  Co23  1  0.875940  0.119846  0.381797  0  .  1
   Co  Co24  1  0.008147  0.003023  0.001388  0  .  1
   O  O25  1  0.104259  0.903310  0.630499  0  .  1
   O  O26  1  0.100823  0.131987  0.397891  0  .  1
   O  O27  1  0.112345  0.612544  0.883713  0  .  1
   O  O28  1  0.133283  0.398824  0.098237  0  .  1
   O  O29  1  0.119466  0.143042  0.861978  0  .  1
   O  O30  1  0.137782  0.356842  0.638572  0  .  1
   O  O31  1  0.142131  0.863973  0.119653  0  .  1
   O  O32  1  0.145843  0.621770  0.350589  0  .  1
   O  O33  1  0.354427  0.378025  0.850804  0  .  1
   O  O34  1  0.357847  0.136142  0.619901  0  .  1
   O  O35  1  0.362272  0.643242  0.138367  0  .  1
   O  O36  1  0.380443  0.857047  0.361608  0  .  1
   O  O37  1  0.366440  0.600972  0.598141  0  .  1
   O  O38  1  0.387778  0.387335  0.383649  0  .  1
   O  O39  1  0.399139  0.867947  0.897583  0  .  1
   O  O40  1  0.395618  0.096651  0.130326  0  .  1
   O  O41  1  0.604365  0.598497  0.369672  0  .  1
   O  O42  1  0.595780  0.370478  0.603847  0  .  1
   O  O43  1  0.614893  0.886785  0.112872  0  .  1
   O  O44  1  0.628678  0.103148  0.899445  0  .  1
   O  O45  1  0.617290  0.343239  0.144673  0  .  1
   O  O46  1  0.636314  0.129135  0.366447  0  .  1
   O  O47  1  0.654405  0.648788  0.878927  0  .  1
   O  O48  1  0.639338  0.884269  0.644588  0  .  1
   O  O49  1  0.860539  0.116051  0.144558  0  .  1
   O  O50  1  0.845723  0.351127  0.378967  0  .  1
   O  O51  1  0.863749  0.870709  0.866465  0  .  1
   O  O52  1  0.882477  0.656459  0.644679  0  .  1
   O  O53  1  0.871421  0.896824  0.399388  0  .  1
   O  O54  1  0.885103  0.113207  0.612919  0  .  1
   O  O55  1  0.904443  0.629515  0.103864  0  .  1
   O  O56  1  0.895919  0.401230  0.869548  0  .  1
 
