#\#CIF1.1
##########################################################################
#               Crystallographic Information Format file 
#               Produced by PyCifRW module
# 
#  This is a CIF file.  CIF has been adopted by the International
#  Union of Crystallography as the standard for data archiving and 
#  transmission.
#
#  For information on this file format, follow the CIF links at
#  http://www.iucr.org
##########################################################################

data_Li5CrS4
_symmetry_space_group_name_H-M          'P 1'
_cell_length_a                          3.73584783
_cell_length_b                          7.61171645845
_cell_length_c                          6.77141389137
_cell_angle_alpha                       63.4082067017
_cell_angle_beta                        90.0
_cell_angle_gamma                       75.7944588061
_chemical_name_systematic               'Generated by pymatgen'
_symmetry_Int_Tables_number             1
_chemical_formula_structural            Li5CrS4
_chemical_formula_sum                   'Li5 Cr1 S4'
_cell_volume                            165.57404582
_cell_formula_units_Z                   1
loop_
  _symmetry_equiv_pos_site_id
  _symmetry_equiv_pos_as_xyz
   1  'x, y, z'
 
loop_
  _atom_site_type_symbol
  _atom_site_label
  _atom_site_symmetry_multiplicity
  _atom_site_fract_x
  _atom_site_fract_y
  _atom_site_fract_z
  _atom_site_attached_hydrogens
  _atom_site_B_iso_or_equiv
  _atom_site_occupancy
   Li  Li1  1  0.177504  0.644992  0.962503  0  .  1
   Li  Li2  1  0.178057  0.643887  0.392624  0  .  1
   Li  Li3  1  0.821943  0.356113  0.607376  0  .  1
   Li  Li4  1  0.822496  0.355008  0.037497  0  .  1
   Li  Li5  1  0.500000  0.000000  0.500000  0  .  1
   Cr  Cr6  1  0.500000  0.000000  0.000000  0  .  1
   S  S7  1  0.000409  0.999182  0.243217  0  .  1
   S  S8  1  0.697996  0.604007  0.197626  0  .  1
   S  S9  1  0.302004  0.395993  0.802374  0  .  1
   S  S10  1  0.999591  0.000818  0.756783  0  .  1
 
