#\#CIF1.1
##########################################################################
#               Crystallographic Information Format file 
#               Produced by PyCifRW module
# 
#  This is a CIF file.  CIF has been adopted by the International
#  Union of Crystallography as the standard for data archiving and 
#  transmission.
#
#  For information on this file format, follow the CIF links at
#  http://www.iucr.org
##########################################################################

data_Li5CoO4
_symmetry_space_group_name_H-M          'P 1'
_cell_length_a                          6.45574183988
_cell_length_b                          6.45575782555
_cell_length_c                          4.72322769565
_cell_angle_alpha                       90.0037225767
_cell_angle_beta                        89.996060692
_cell_angle_gamma                       86.0138349804
_chemical_name_systematic               'Generated by pymatgen'
_symmetry_Int_Tables_number             1
_chemical_formula_structural            Li5CoO4
_chemical_formula_sum                   'Li10 Co2 O8'
_cell_volume                            196.372367368
_cell_formula_units_Z                   2
loop_
  _symmetry_equiv_pos_site_id
  _symmetry_equiv_pos_as_xyz
   1  'x, y, z'
 
loop_
  _atom_site_type_symbol
  _atom_site_label
  _atom_site_symmetry_multiplicity
  _atom_site_fract_x
  _atom_site_fract_y
  _atom_site_fract_z
  _atom_site_attached_hydrogens
  _atom_site_B_iso_or_equiv
  _atom_site_occupancy
   Li  Li1  1  0.041172  0.950688  0.776241  0  .  1
   Li  Li2  1  0.215543  0.280189  0.691467  0  .  1
   Li  Li3  1  0.280157  0.215606  0.191459  0  .  1
   Li  Li4  1  0.450683  0.541173  0.723767  0  .  1
   Li  Li5  1  0.482172  0.982172  0.750000  0  .  1
   Li  Li6  1  0.541412  0.450436  0.223838  0  .  1
   Li  Li7  1  0.715602  0.780159  0.308533  0  .  1
   Li  Li8  1  0.780192  0.715534  0.808523  0  .  1
   Li  Li9  1  0.950435  0.041416  0.276170  0  .  1
   Li  Li10  1  0.982043  0.482042  0.249993  0  .  1
   Co  Co11  1  0.256618  0.756622  0.250005  0  .  1
   Co  Co12  1  0.756409  0.256404  0.750003  0  .  1
   O  O13  1  0.999673  0.238008  0.974221  0  .  1
   O  O14  1  0.237830  0.999582  0.474308  0  .  1
   O  O15  1  0.265931  0.486307  0.410410  0  .  1
   O  O16  1  0.486479  0.265741  0.910390  0  .  1
   O  O17  1  0.499574  0.737831  0.025689  0  .  1
   O  O18  1  0.765736  0.986475  0.589616  0  .  1
   O  O19  1  0.738018  0.499660  0.525771  0  .  1
   O  O20  1  0.986302  0.765932  0.089595  0  .  1
 
