#\#CIF1.1
##########################################################################
#               Crystallographic Information Format file 
#               Produced by PyCifRW module
# 
#  This is a CIF file.  CIF has been adopted by the International
#  Union of Crystallography as the standard for data archiving and 
#  transmission.
#
#  For information on this file format, follow the CIF links at
#  http://www.iucr.org
##########################################################################

data_Li5Cr4O8
_symmetry_space_group_name_H-M          'P 1'
_cell_length_a                          5.93410869949
_cell_length_b                          6.06286091398
_cell_length_c                          9.96338677267
_cell_angle_alpha                       89.9352182776
_cell_angle_beta                        89.8659870629
_cell_angle_gamma                       60.6995901748
_chemical_name_systematic               'Generated by pymatgen'
_symmetry_Int_Tables_number             1
_chemical_formula_structural            Li5Cr4O8
_chemical_formula_sum                   'Li10 Cr8 O16'
_cell_volume                            312.599403817
_cell_formula_units_Z                   2
loop_
  _symmetry_equiv_pos_site_id
  _symmetry_equiv_pos_as_xyz
   1  'x, y, z'
 
loop_
  _atom_site_type_symbol
  _atom_site_label
  _atom_site_symmetry_multiplicity
  _atom_site_fract_x
  _atom_site_fract_y
  _atom_site_fract_z
  _atom_site_attached_hydrogens
  _atom_site_B_iso_or_equiv
  _atom_site_occupancy
   Li  Li1  1  0.824115  0.790271  0.937153  0  .  1
   Li  Li2  1  0.384071  0.788484  0.936321  0  .  1
   Li  Li3  1  0.793859  0.410351  0.949708  0  .  1
   Li  Li4  1  0.684659  0.632578  0.723079  0  .  1
   Li  Li5  1  0.989682  0.021980  0.013245  0  .  1
   Li  Li6  1  0.204197  0.589649  0.449713  0  .  1
   Li  Li7  1  0.011675  0.978011  0.513247  0  .  1
   Li  Li8  1  0.614388  0.209733  0.437159  0  .  1
   Li  Li9  1  0.317221  0.367410  0.223102  0  .  1
   Li  Li10  1  0.172518  0.211534  0.436335  0  .  1
   Cr  Cr11  1  0.661640  0.676147  0.473590  0  .  1
   Cr  Cr12  1  0.320576  0.863153  0.214168  0  .  1
   Cr  Cr13  1  0.337725  0.323929  0.973614  0  .  1
   Cr  Cr14  1  0.183745  0.136835  0.714174  0  .  1
   Cr  Cr15  1  0.816740  0.863214  0.214117  0  .  1
   Cr  Cr16  1  0.183012  0.634161  0.714144  0  .  1
   Cr  Cr17  1  0.817156  0.365829  0.214149  0  .  1
   Cr  Cr18  1  0.679977  0.136778  0.714123  0  .  1
   O  O19  1  0.017359  0.964794  0.824545  0  .  1
   O  O20  1  0.856276  0.811570  0.598073  0  .  1
   O  O21  1  0.487426  0.024619  0.325706  0  .  1
   O  O22  1  0.968076  0.537663  0.332238  0  .  1
   O  O23  1  0.655847  0.689410  0.099964  0  .  1
   O  O24  1  0.332757  0.811823  0.598413  0  .  1
   O  O25  1  0.493823  0.537504  0.332478  0  .  1
   O  O26  1  0.144587  0.712515  0.101271  0  .  1
   O  O27  1  0.857121  0.287479  0.601274  0  .  1
   O  O28  1  0.505747  0.462334  0.832247  0  .  1
   O  O29  1  0.031338  0.462498  0.832477  0  .  1
   O  O30  1  0.345281  0.310570  0.599967  0  .  1
   O  O31  1  0.982135  0.035191  0.324544  0  .  1
   O  O32  1  0.667829  0.188422  0.098074  0  .  1
   O  O33  1  0.512062  0.975386  0.825712  0  .  1
   O  O34  1  0.144568  0.188173  0.098412  0  .  1
 
