#\#CIF1.1
##########################################################################
#               Crystallographic Information Format file 
#               Produced by PyCifRW module
# 
#  This is a CIF file.  CIF has been adopted by the International
#  Union of Crystallography as the standard for data archiving and 
#  transmission.
#
#  For information on this file format, follow the CIF links at
#  http://www.iucr.org
##########################################################################

data_Li5FeO4
_symmetry_space_group_name_H-M          'P 1'
_cell_length_a                          8.56191265964
_cell_length_b                          9.56270389
_cell_length_c                          5.24537534707
_cell_angle_alpha                       90.0
_cell_angle_beta                        105.501407659
_cell_angle_gamma                       90.0
_chemical_name_systematic               'Generated by pymatgen'
_symmetry_Int_Tables_number             1
_chemical_formula_structural            Li5FeO4
_chemical_formula_sum                   'Li20 Fe4 O16'
_cell_volume                            413.843014854
_cell_formula_units_Z                   4
loop_
  _symmetry_equiv_pos_site_id
  _symmetry_equiv_pos_as_xyz
   1  'x, y, z'
 
loop_
  _atom_site_type_symbol
  _atom_site_label
  _atom_site_symmetry_multiplicity
  _atom_site_fract_x
  _atom_site_fract_y
  _atom_site_fract_z
  _atom_site_attached_hydrogens
  _atom_site_B_iso_or_equiv
  _atom_site_occupancy
   Li  Li1  1  0.960537  0.045426  0.749935  0  .  1
   Li  Li2  1  0.960537  0.454574  0.249935  0  .  1
   Li  Li3  1  0.141852  0.813301  0.842308  0  .  1
   Li  Li4  1  0.141852  0.686699  0.342308  0  .  1
   Li  Li5  1  0.151523  0.321464  0.001890  0  .  1
   Li  Li6  1  0.151523  0.178536  0.501890  0  .  1
   Li  Li7  1  0.344820  0.926189  0.574554  0  .  1
   Li  Li8  1  0.344820  0.573811  0.074554  0  .  1
   Li  Li9  1  0.536862  0.197012  0.880319  0  .  1
   Li  Li10  1  0.463138  0.697012  0.619681  0  .  1
   Li  Li11  1  0.536862  0.302988  0.380319  0  .  1
   Li  Li12  1  0.463138  0.802988  0.119681  0  .  1
   Li  Li13  1  0.655180  0.426189  0.925446  0  .  1
   Li  Li14  1  0.655180  0.073811  0.425446  0  .  1
   Li  Li15  1  0.848477  0.821464  0.498110  0  .  1
   Li  Li16  1  0.848477  0.678536  0.998110  0  .  1
   Li  Li17  1  0.858148  0.313301  0.657692  0  .  1
   Li  Li18  1  0.858148  0.186699  0.157692  0  .  1
   Li  Li19  1  0.039463  0.545426  0.750065  0  .  1
   Li  Li20  1  0.039463  0.954574  0.250065  0  .  1
   Fe  Fe21  1  0.268280  0.452696  0.557247  0  .  1
   Fe  Fe22  1  0.268280  0.047304  0.057247  0  .  1
   Fe  Fe23  1  0.731720  0.952696  0.942753  0  .  1
   Fe  Fe24  1  0.731720  0.547304  0.442753  0  .  1
   O  O25  1  0.089221  0.351831  0.628081  0  .  1
   O  O26  1  0.089221  0.148169  0.128081  0  .  1
   O  O27  1  0.258802  0.636976  0.711929  0  .  1
   O  O28  1  0.176296  0.004932  0.689113  0  .  1
   O  O29  1  0.258802  0.863024  0.211929  0  .  1
   O  O30  1  0.176296  0.495068  0.189113  0  .  1
   O  O31  1  0.465554  0.362721  0.680476  0  .  1
   O  O32  1  0.465554  0.137279  0.180476  0  .  1
   O  O33  1  0.534446  0.862721  0.819524  0  .  1
   O  O34  1  0.534446  0.637279  0.319524  0  .  1
   O  O35  1  0.823704  0.504932  0.810887  0  .  1
   O  O36  1  0.741198  0.136976  0.788071  0  .  1
   O  O37  1  0.823704  0.995068  0.310887  0  .  1
   O  O38  1  0.741198  0.363024  0.288071  0  .  1
   O  O39  1  0.910779  0.851831  0.871919  0  .  1
   O  O40  1  0.910779  0.648169  0.371919  0  .  1
 
