#\#CIF1.1
##########################################################################
#               Crystallographic Information Format file 
#               Produced by PyCifRW module
# 
#  This is a CIF file.  CIF has been adopted by the International
#  Union of Crystallography as the standard for data archiving and 
#  transmission.
#
#  For information on this file format, follow the CIF links at
#  http://www.iucr.org
##########################################################################

data_Li5Fe5O12
_symmetry_space_group_name_H-M          'P 1'
_cell_length_a                          5.17125517289
_cell_length_b                          5.12092514017
_cell_length_c                          10.3624869683
_cell_angle_alpha                       90.5675841172
_cell_angle_beta                        91.4989984792
_cell_angle_gamma                       59.686002092
_chemical_name_systematic               'Generated by pymatgen'
_symmetry_Int_Tables_number             1
_chemical_formula_structural            Li5Fe5O12
_chemical_formula_sum                   'Li5 Fe5 O12'
_cell_volume                            236.812357426
_cell_formula_units_Z                   1
loop_
  _symmetry_equiv_pos_site_id
  _symmetry_equiv_pos_as_xyz
   1  'x, y, z'
 
loop_
  _atom_site_type_symbol
  _atom_site_label
  _atom_site_symmetry_multiplicity
  _atom_site_fract_x
  _atom_site_fract_y
  _atom_site_fract_z
  _atom_site_attached_hydrogens
  _atom_site_B_iso_or_equiv
  _atom_site_occupancy
   Li  Li1  1  0.149107  0.512399  0.749912  0  .  1
   Li  Li2  1  0.339854  0.509699  0.248006  0  .  1
   Li  Li3  1  0.000453  -0.000012  0.998639  0  .  1
   Li  Li4  1  0.656036  0.499241  0.749225  0  .  1
   Li  Li5  1  0.839672  0.507486  0.249037  0  .  1
   Fe  Fe6  1  0.163973  0.671049  0.498563  0  .  1
   Fe  Fe7  1  0.664985  0.670548  0.998600  0  .  1
   Fe  Fe8  1  0.336271  0.328081  0.999019  0  .  1
   Fe  Fe9  1  0.833297  0.332101  0.498877  0  .  1
   Fe  Fe10  1  0.504145  -0.009275  0.499198  0  .  1
   O  O11  1  0.022355  0.618962  0.105607  0  .  1
   O  O12  1  0.358667  0.620076  0.891848  0  .  1
   O  O13  1  0.164194  0.356710  0.393983  0  .  1
   O  O14  1  0.509378  0.655395  0.388896  0  .  1
   O  O15  1  0.478729  0.354933  0.603856  0  .  1
   O  O16  1  0.173100  0.984742  0.595001  0  .  1
   O  O17  1  0.834971  0.653530  0.608877  0  .  1
   O  O18  1  0.642489  0.379903  0.106245  0  .  1
   O  O19  1  0.369326  0.998326  0.094992  0  .  1
   O  O20  1  0.977544  0.380569  0.891731  0  .  1
   O  O21  1  0.632007  0.000766  0.902711  0  .  1
   O  O22  1  0.839349  -0.013114  0.402715  0  .  1
 
