#\#CIF1.1
##########################################################################
#               Crystallographic Information Format file 
#               Produced by PyCifRW module
# 
#  This is a CIF file.  CIF has been adopted by the International
#  Union of Crystallography as the standard for data archiving and 
#  transmission.
#
#  For information on this file format, follow the CIF links at
#  http://www.iucr.org
##########################################################################

data_Li5Fe3O8
_symmetry_space_group_name_H-M          'P 1'
_cell_length_a                          5.85348103184
_cell_length_b                          5.81015555545
_cell_length_c                          9.90420967653
_cell_angle_alpha                       91.0029009254
_cell_angle_beta                        89.0867313446
_cell_angle_gamma                       119.914200773
_chemical_name_systematic               'Generated by pymatgen'
_symmetry_Int_Tables_number             1
_chemical_formula_structural            Li5Fe3O8
_chemical_formula_sum                   'Li10 Fe6 O16'
_cell_volume                            291.907798162
_cell_formula_units_Z                   2
loop_
  _symmetry_equiv_pos_site_id
  _symmetry_equiv_pos_as_xyz
   1  'x, y, z'
 
loop_
  _atom_site_type_symbol
  _atom_site_label
  _atom_site_symmetry_multiplicity
  _atom_site_fract_x
  _atom_site_fract_y
  _atom_site_fract_z
  _atom_site_attached_hydrogens
  _atom_site_B_iso_or_equiv
  _atom_site_occupancy
   Li  Li1  1  0.187321  0.823009  0.050009  0  .  1
   Li  Li2  1  0.359640  0.675174  0.533625  0  .  1
   Li  Li3  1  0.346050  0.660784  0.281531  0  .  1
   Li  Li4  1  0.683544  0.825552  0.047028  0  .  1
   Li  Li5  1  0.856512  0.673854  0.550714  0  .  1
   Li  Li6  1  0.182086  0.321301  0.049423  0  .  1
   Li  Li7  1  0.364073  0.180351  0.550141  0  .  1
   Li  Li8  1  0.685441  0.340964  0.781617  0  .  1
   Li  Li9  1  0.674899  0.315341  0.033078  0  .  1
   Li  Li10  1  0.860149  0.173978  0.549089  0  .  1
   Fe  Fe11  1  0.845680  0.660012  0.286642  0  .  1
   Fe  Fe12  1  0.185502  0.341342  0.787568  0  .  1
   Fe  Fe13  1  0.683962  0.839736  0.786816  0  .  1
   Fe  Fe14  1  0.845593  0.161940  0.287070  0  .  1
   Fe  Fe15  1  0.185523  0.840351  0.787019  0  .  1
   Fe  Fe16  1  0.346574  0.161170  0.287755  0  .  1
   O  O17  1  0.024566  0.012008  0.667063  0  .  1
   O  O18  1  0.177294  0.843751  0.393974  0  .  1
   O  O19  1  0.511935  0.988069  0.677634  0  .  1
   O  O20  1  0.346624  0.667131  0.909859  0  .  1
   O  O21  1  0.695014  0.834239  0.396637  0  .  1
   O  O22  1  0.038897  0.526313  0.674277  0  .  1
   O  O23  1  0.524046  0.526718  0.674938  0  .  1
   O  O24  1  0.856461  0.688659  0.892258  0  .  1
   O  O25  1  0.182610  0.316948  0.396269  0  .  1
   O  O26  1  0.517605  0.477138  0.176254  0  .  1
   O  O27  1  0.995340  0.486813  0.173675  0  .  1
   O  O28  1  0.009307  0.991450  0.167757  0  .  1
   O  O29  1  0.685728  0.331784  0.409535  0  .  1
   O  O30  1  0.334172  0.153626  0.896729  0  .  1
   O  O31  1  0.512196  0.008657  0.175811  0  .  1
   O  O32  1  0.844221  0.151819  0.897240  0  .  1
 
