#\#CIF1.1
##########################################################################
#               Crystallographic Information Format file 
#               Produced by PyCifRW module
# 
#  This is a CIF file.  CIF has been adopted by the International
#  Union of Crystallography as the standard for data archiving and 
#  transmission.
#
#  For information on this file format, follow the CIF links at
#  http://www.iucr.org
##########################################################################

data_Li5Mn7O16
_symmetry_space_group_name_H-M          'P 1'
_cell_length_a                          5.82573663269
_cell_length_b                          23.5777241637
_cell_length_c                          10.2151885411
_cell_angle_alpha                       29.9442117846
_cell_angle_beta                        55.2296026356
_cell_angle_gamma                       60.3854686664
_chemical_name_systematic               'Generated by pymatgen'
_symmetry_Int_Tables_number             1
_chemical_formula_structural            Li5Mn7O16
_chemical_formula_sum                   'Li10 Mn14 O32'
_cell_volume                            575.325750818
_cell_formula_units_Z                   2
loop_
  _symmetry_equiv_pos_site_id
  _symmetry_equiv_pos_as_xyz
   1  'x, y, z'
 
loop_
  _atom_site_type_symbol
  _atom_site_label
  _atom_site_symmetry_multiplicity
  _atom_site_fract_x
  _atom_site_fract_y
  _atom_site_fract_z
  _atom_site_attached_hydrogens
  _atom_site_B_iso_or_equiv
  _atom_site_occupancy
   Li  Li1  1  0.500000  0.125000  0.000000  0  .  1
   Li  Li2  1  0.122360  0.245558  0.136495  0  .  1
   Li  Li3  1  0.122360  0.504442  0.118728  0  .  1
   Li  Li4  1  0.877640  0.004442  0.863505  0  .  1
   Li  Li5  1  0.112379  0.747287  0.143036  0  .  1
   Li  Li6  1  0.500000  0.625000  0.500000  0  .  1
   Li  Li7  1  0.887621  0.247287  0.867814  0  .  1
   Li  Li8  1  0.112379  0.002713  0.132186  0  .  1
   Li  Li9  1  0.887621  0.502713  0.856964  0  .  1
   Li  Li10  1  0.877640  0.745558  0.881272  0  .  1
   Mn  Mn11  1  0.992833  0.252539  0.499952  0  .  1
   Mn  Mn12  1  0.500000  0.125000  0.500000  0  .  1
   Mn  Mn13  1  0.501060  0.375056  0.998799  0  .  1
   Mn  Mn14  1  0.992833  0.497461  0.510106  0  .  1
   Mn  Mn15  1  0.497121  0.252532  0.499957  0  .  1
   Mn  Mn16  1  0.501060  0.374944  0.499022  0  .  1
   Mn  Mn17  1  0.500000  0.625000  0.000000  0  .  1
   Mn  Mn18  1  0.497121  0.497468  0.510086  0  .  1
   Mn  Mn19  1  0.007167  0.752539  0.489894  0  .  1
   Mn  Mn20  1  0.498940  0.874944  0.001201  0  .  1
   Mn  Mn21  1  0.007167  0.997461  0.500048  0  .  1
   Mn  Mn22  1  0.502879  0.752532  0.489914  0  .  1
   Mn  Mn23  1  0.498940  0.875056  0.500978  0  .  1
   Mn  Mn24  1  0.502879  0.997468  0.500043  0  .  1
   O  O25  1  0.248433  0.986298  0.298557  0  .  1
   O  O26  1  0.251456  0.102248  0.294045  0  .  1
   O  O27  1  0.709270  0.986315  0.298529  0  .  1
   O  O28  1  0.294785  0.000234  0.731063  0  .  1
   O  O29  1  0.257803  0.249772  0.268936  0  .  1
   O  O30  1  0.760701  0.103508  0.282302  0  .  1
   O  O31  1  0.239299  0.146492  0.717698  0  .  1
   O  O32  1  0.268706  0.366485  0.248326  0  .  1
   O  O33  1  0.742197  0.000228  0.731064  0  .  1
   O  O34  1  0.705215  0.249766  0.268937  0  .  1
   O  O35  1  0.290730  0.263685  0.701471  0  .  1
   O  O36  1  0.257803  0.500228  0.268022  0  .  1
   O  O37  1  0.736478  0.366558  0.280380  0  .  1
   O  O38  1  0.748544  0.147752  0.705955  0  .  1
   O  O39  1  0.268706  0.383515  0.714265  0  .  1
   O  O40  1  0.239299  0.603508  0.303666  0  .  1
   O  O41  1  0.751567  0.263702  0.701443  0  .  1
   O  O42  1  0.705215  0.500234  0.268002  0  .  1
   O  O43  1  0.290730  0.486315  0.756212  0  .  1
   O  O44  1  0.248433  0.763702  0.243749  0  .  1
   O  O45  1  0.748544  0.602248  0.296965  0  .  1
   O  O46  1  0.736478  0.383442  0.746614  0  .  1
   O  O47  1  0.251456  0.647752  0.703035  0  .  1
   O  O48  1  0.263522  0.866558  0.253386  0  .  1
   O  O49  1  0.751567  0.486298  0.756251  0  .  1
   O  O50  1  0.709270  0.763685  0.243788  0  .  1
   O  O51  1  0.294785  0.749766  0.731998  0  .  1
   O  O52  1  0.760701  0.646492  0.696334  0  .  1
   O  O53  1  0.731294  0.866485  0.285735  0  .  1
   O  O54  1  0.263522  0.883442  0.719620  0  .  1
   O  O55  1  0.742197  0.749772  0.731978  0  .  1
   O  O56  1  0.731294  0.883515  0.751674  0  .  1
 
