#\#CIF1.1
##########################################################################
#               Crystallographic Information Format file 
#               Produced by PyCifRW module
# 
#  This is a CIF file.  CIF has been adopted by the International
#  Union of Crystallography as the standard for data archiving and 
#  transmission.
#
#  For information on this file format, follow the CIF links at
#  http://www.iucr.org
##########################################################################

data_Li5Mn4O8
_symmetry_space_group_name_H-M          'P 1'
_cell_length_a                          6.31990556957
_cell_length_b                          6.38895058893
_cell_length_c                          6.38895058893
_cell_angle_alpha                       126.127327257
_cell_angle_beta                        125.00546185
_cell_angle_gamma                       80.8655138874
_chemical_name_systematic               'Generated by pymatgen'
_symmetry_Int_Tables_number             1
_chemical_formula_structural            Li5Mn4O8
_chemical_formula_sum                   'Li5 Mn4 O8'
_cell_volume                            164.271947285
_cell_formula_units_Z                   1
loop_
  _symmetry_equiv_pos_site_id
  _symmetry_equiv_pos_as_xyz
   1  'x, y, z'
 
loop_
  _atom_site_type_symbol
  _atom_site_label
  _atom_site_symmetry_multiplicity
  _atom_site_fract_x
  _atom_site_fract_y
  _atom_site_fract_z
  _atom_site_attached_hydrogens
  _atom_site_B_iso_or_equiv
  _atom_site_occupancy
   Li  Li1  1  0.500000  0.000000  0.500000  0  .  1
   Li  Li2  1  0.977590  0.082412  0.895178  0  .  1
   Li  Li3  1  0.000000  0.000000  0.500000  0  .  1
   Li  Li4  1  0.000000  0.500000  0.000000  0  .  1
   Li  Li5  1  0.022410  0.917588  0.104822  0  .  1
   Mn  Mn6  1  0.500000  0.000000  0.000000  0  .  1
   Mn  Mn7  1  0.500000  0.500000  0.000000  0  .  1
   Mn  Mn8  1  0.500000  0.500000  0.500000  0  .  1
   Mn  Mn9  1  0.000000  0.500000  0.500000  0  .  1
   O  O10  1  0.763820  0.257463  0.023808  0  .  1
   O  O11  1  0.728452  0.246614  0.481839  0  .  1
   O  O12  1  0.275273  0.260675  0.014598  0  .  1
   O  O13  1  0.763820  0.740012  0.506357  0  .  1
   O  O14  1  0.236180  0.259988  0.493643  0  .  1
   O  O15  1  0.271548  0.753386  0.518161  0  .  1
   O  O16  1  0.724727  0.739325  0.985402  0  .  1
   O  O17  1  0.236180  0.742537  0.976192  0  .  1
 
