#\#CIF1.1
##########################################################################
#               Crystallographic Information Format file 
#               Produced by PyCifRW module
# 
#  This is a CIF file.  CIF has been adopted by the International
#  Union of Crystallography as the standard for data archiving and 
#  transmission.
#
#  For information on this file format, follow the CIF links at
#  http://www.iucr.org
##########################################################################

data_Li5Mn7O12
_symmetry_space_group_name_H-M          'P 1'
_cell_length_a                          5.24589652431
_cell_length_b                          5.24589620754
_cell_length_c                          9.97329825543
_cell_angle_alpha                       84.9502055047
_cell_angle_beta                        95.04979332
_cell_angle_gamma                       59.7347919934
_chemical_name_systematic               'Generated by pymatgen'
_symmetry_Int_Tables_number             1
_chemical_formula_structural            Li5Mn7O12
_chemical_formula_sum                   'Li5 Mn7 O12'
_cell_volume                            233.318858622
_cell_formula_units_Z                   1
loop_
  _symmetry_equiv_pos_site_id
  _symmetry_equiv_pos_as_xyz
   1  'x, y, z'
 
loop_
  _atom_site_type_symbol
  _atom_site_label
  _atom_site_symmetry_multiplicity
  _atom_site_fract_x
  _atom_site_fract_y
  _atom_site_fract_z
  _atom_site_attached_hydrogens
  _atom_site_B_iso_or_equiv
  _atom_site_occupancy
   Li  Li1  1  0.158114  0.664100  0.503009  0  .  1
   Li  Li2  1  0.332066  0.843693  0.995180  0  .  1
   Li  Li3  1  0.664100  0.158114  0.996991  0  .  1
   Li  Li4  1  0.843693  0.332066  0.504820  0  .  1
   Li  Li5  1  0.915456  0.915456  0.750000  0  .  1
   Mn  Mn6  1  0.078702  0.078702  0.250000  0  .  1
   Mn  Mn7  1  0.998265  0.508814  0.994172  0  .  1
   Mn  Mn8  1  0.249288  0.249288  0.750000  0  .  1
   Mn  Mn9  1  0.508814  0.998265  0.505828  0  .  1
   Mn  Mn10  1  0.421413  0.421413  0.250000  0  .  1
   Mn  Mn11  1  0.577587  0.577587  0.750000  0  .  1
   Mn  Mn12  1  0.749940  0.749940  0.250000  0  .  1
   O  O13  1  0.982219  0.224805  0.869334  0  .  1
   O  O14  1  0.224805  0.982219  0.630666  0  .  1
   O  O15  1  0.110339  0.391648  0.367545  0  .  1
   O  O16  1  0.391648  0.110339  0.132455  0  .  1
   O  O17  1  0.293949  0.517750  0.865361  0  .  1
   O  O18  1  0.517750  0.293949  0.634639  0  .  1
   O  O19  1  0.451185  0.724466  0.375063  0  .  1
   O  O20  1  0.724466  0.451185  0.124937  0  .  1
   O  O21  1  0.612408  0.872350  0.868574  0  .  1
   O  O22  1  0.872350  0.612408  0.631426  0  .  1
   O  O23  1  0.781618  0.039825  0.380627  0  .  1
   O  O24  1  0.039825  0.781618  0.119373  0  .  1
 
