#\#CIF1.1
##########################################################################
#               Crystallographic Information Format file 
#               Produced by PyCifRW module
# 
#  This is a CIF file.  CIF has been adopted by the International
#  Union of Crystallography as the standard for data archiving and 
#  transmission.
#
#  For information on this file format, follow the CIF links at
#  http://www.iucr.org
##########################################################################

data_Li5Ti8O16
_symmetry_space_group_name_H-M          'P 1'
_cell_length_a                          5.32074856415
_cell_length_b                          7.6609574389
_cell_length_c                          7.87470272452
_cell_angle_alpha                       86.3983186367
_cell_angle_beta                        105.756716475
_cell_angle_gamma                       71.1703221822
_chemical_name_systematic               'Generated by pymatgen'
_symmetry_Int_Tables_number             1
_chemical_formula_structural            Li5Ti8O16
_chemical_formula_sum                   'Li5 Ti8 O16'
_cell_volume                            288.377595465
_cell_formula_units_Z                   1
loop_
  _symmetry_equiv_pos_site_id
  _symmetry_equiv_pos_as_xyz
   1  'x, y, z'
 
loop_
  _atom_site_type_symbol
  _atom_site_label
  _atom_site_symmetry_multiplicity
  _atom_site_fract_x
  _atom_site_fract_y
  _atom_site_fract_z
  _atom_site_attached_hydrogens
  _atom_site_B_iso_or_equiv
  _atom_site_occupancy
   Li  Li1  1  0.539529  0.331480  0.540704  0  .  1
   Li  Li2  1  0.452830  0.178916  0.958311  0  .  1
   Li  Li3  1  0.979108  0.659616  0.957487  0  .  1
   Li  Li4  1  0.525964  0.824785  0.051891  0  .  1
   Li  Li5  1  0.033269  0.831649  0.541784  0  .  1
   Ti  Ti6  1  0.980095  0.058158  0.820954  0  .  1
   Ti  Ti7  1  0.476293  0.058063  0.320407  0  .  1
   Ti  Ti8  1  0.530245  0.442528  0.191835  0  .  1
   Ti  Ti9  1  0.988461  0.550522  0.319782  0  .  1
   Ti  Ti10  1  0.003628  0.443527  0.668298  0  .  1
   Ti  Ti11  1  0.494315  0.553558  0.817119  0  .  1
   Ti  Ti12  1  0.497747  0.944478  0.669579  0  .  1
   Ti  Ti13  1  0.021285  0.946281  0.192771  0  .  1
   O  O14  1  0.714820  0.174389  0.194013  0  .  1
   O  O15  1  0.732729  0.051864  0.573952  0  .  1
   O  O16  1  0.236183  0.050347  0.067808  0  .  1
   O  O17  1  0.231424  0.175130  0.708446  0  .  1
   O  O18  1  0.762803  0.440894  0.432650  0  .  1
   O  O19  1  0.730828  0.560801  0.066186  0  .  1
   O  O20  1  0.284393  0.325438  0.308305  0  .  1
   O  O21  1  0.765573  0.323704  0.791125  0  .  1
   O  O22  1  0.223304  0.676452  0.191416  0  .  1
   O  O23  1  0.735570  0.675417  0.707086  0  .  1
   O  O24  1  0.235382  0.555314  0.572479  0  .  1
   O  O25  1  0.278461  0.449507  0.924502  0  .  1
   O  O26  1  0.774616  0.824519  0.300746  0  .  1
   O  O27  1  0.763051  0.946255  0.930076  0  .  1
   O  O28  1  0.255925  0.943443  0.433883  0  .  1
   O  O29  1  0.270270  0.824513  0.799855  0  .  1
 
