#\#CIF1.1
##########################################################################
#               Crystallographic Information Format file 
#               Produced by PyCifRW module
# 
#  This is a CIF file.  CIF has been adopted by the International
#  Union of Crystallography as the standard for data archiving and 
#  transmission.
#
#  For information on this file format, follow the CIF links at
#  http://www.iucr.org
##########################################################################

data_Li5TiAs3
_symmetry_space_group_name_H-M          'P 1'
_cell_length_a                          8.51528977862
_cell_length_b                          12.8560023598
_cell_length_c                          10.4632813113
_cell_angle_alpha                       35.2255848284
_cell_angle_beta                        35.5502342647
_cell_angle_gamma                       60.2144395895
_chemical_name_systematic               'Generated by pymatgen'
_symmetry_Int_Tables_number             1
_chemical_formula_structural            Li5TiAs3
_chemical_formula_sum                   'Li10 Ti2 As6'
_cell_volume                            332.545068952
_cell_formula_units_Z                   2
loop_
  _symmetry_equiv_pos_site_id
  _symmetry_equiv_pos_as_xyz
   1  'x, y, z'
 
loop_
  _atom_site_type_symbol
  _atom_site_label
  _atom_site_symmetry_multiplicity
  _atom_site_fract_x
  _atom_site_fract_y
  _atom_site_fract_z
  _atom_site_attached_hydrogens
  _atom_site_B_iso_or_equiv
  _atom_site_occupancy
   Li  Li1  1  0.992527  0.345020  0.239155  0  .  1
   Li  Li2  1  0.994929  0.655911  0.273073  0  .  1
   Li  Li3  1  0.523077  0.342495  0.230828  0  .  1
   Li  Li4  1  0.007446  0.344595  0.724624  0  .  1
   Li  Li5  1  0.488886  0.658423  0.257075  0  .  1
   Li  Li6  1  0.481053  0.000043  0.269413  0  .  1
   Li  Li7  1  0.512770  0.343322  0.740053  0  .  1
   Li  Li8  1  0.478030  0.657224  0.769057  0  .  1
   Li  Li9  1  0.520504  0.000646  0.729114  0  .  1
   Li  Li10  1  0.009149  0.656462  0.758181  0  .  1
   Ti  Ti11  1  0.015312  0.000155  0.234568  0  .  1
   Ti  Ti12  1  0.985520  0.000231  0.764205  0  .  1
   As  As13  1  0.000349  0.000227  0.999479  0  .  1
   As  As14  1  0.014162  0.310710  0.002053  0  .  1
   As  As15  1  0.500504  0.000807  0.998811  0  .  1
   As  As16  1  0.987875  0.690188  0.995046  0  .  1
   As  As17  1  0.451798  0.310119  0.065365  0  .  1
   As  As18  1  0.549291  0.690428  0.933689  0  .  1
 
