#\#CIF1.1
##########################################################################
#               Crystallographic Information Format file 
#               Produced by PyCifRW module
# 
#  This is a CIF file.  CIF has been adopted by the International
#  Union of Crystallography as the standard for data archiving and 
#  transmission.
#
#  For information on this file format, follow the CIF links at
#  http://www.iucr.org
##########################################################################

data_Li5Ti12O24
_symmetry_space_group_name_H-M          'P 1'
_cell_length_a                          5.99322721446
_cell_length_b                          5.99324958992
_cell_length_c                          53.8665326561
_cell_angle_alpha                       59.9556364117
_cell_angle_beta                        59.9554347897
_cell_angle_gamma                       59.9946316954
_chemical_name_systematic               'Generated by pymatgen'
_symmetry_Int_Tables_number             1
_chemical_formula_structural            Li5Ti12O24
_chemical_formula_sum                   'Li15 Ti36 O72'
_cell_volume                            1367.1536433
_cell_formula_units_Z                   3
loop_
  _symmetry_equiv_pos_site_id
  _symmetry_equiv_pos_as_xyz
   1  'x, y, z'
 
loop_
  _atom_site_type_symbol
  _atom_site_label
  _atom_site_symmetry_multiplicity
  _atom_site_fract_x
  _atom_site_fract_y
  _atom_site_fract_z
  _atom_site_attached_hydrogens
  _atom_site_B_iso_or_equiv
  _atom_site_occupancy
   Li  Li1  1  0.123994  0.123990  0.014221  0  .  1
   Li  Li2  1  0.125510  0.125506  0.124831  0  .  1
   Li  Li3  1  0.125309  0.125304  0.347126  0  .  1
   Li  Li4  1  0.124934  0.124929  0.458364  0  .  1
   Li  Li5  1  0.874469  0.874473  0.208512  0  .  1
   Li  Li6  1  0.124965  0.124961  0.569459  0  .  1
   Li  Li7  1  0.876388  0.876391  0.318981  0  .  1
   Li  Li8  1  0.124969  0.124964  0.680568  0  .  1
   Li  Li9  1  0.875030  0.875034  0.430543  0  .  1
   Li  Li10  1  0.124734  0.124734  0.791757  0  .  1
   Li  Li11  1  0.875034  0.875039  0.541648  0  .  1
   Li  Li12  1  0.875077  0.875080  0.652747  0  .  1
   Li  Li13  1  0.874546  0.874549  0.764033  0  .  1
   Li  Li14  1  0.874241  0.874241  0.875248  0  .  1
   Li  Li15  1  0.876060  0.876066  0.985759  0  .  1
   Ti  Ti16  1  0.996294  0.499540  0.056067  0  .  1
   Ti  Ti17  1  0.500121  0.500120  0.999957  0  .  1
   Ti  Ti18  1  0.499540  0.996291  0.056068  0  .  1
   Ti  Ti19  1  0.999939  0.499998  0.166676  0  .  1
   Ti  Ti20  1  0.499514  0.499514  0.056077  0  .  1
   Ti  Ti21  1  0.501838  0.501840  0.110506  0  .  1
   Ti  Ti22  1  0.499999  0.999941  0.166676  0  .  1
   Ti  Ti23  1  0.004417  0.500485  0.277185  0  .  1
   Ti  Ti24  1  0.500002  0.500001  0.166673  0  .  1
   Ti  Ti25  1  0.498144  0.498149  0.222832  0  .  1
   Ti  Ti26  1  0.500487  0.004420  0.277186  0  .  1
   Ti  Ti27  1  0.500472  0.500472  0.277179  0  .  1
   Ti  Ti28  1  0.000369  0.500067  0.388839  0  .  1
   Ti  Ti29  1  0.501757  0.501752  0.332746  0  .  1
   Ti  Ti30  1  0.500066  0.000369  0.388839  0  .  1
   Ti  Ti31  1  0.500014  0.500015  0.388838  0  .  1
   Ti  Ti32  1  0.999800  0.500012  0.500022  0  .  1
   Ti  Ti33  1  0.499829  0.499830  0.444500  0  .  1
   Ti  Ti34  1  0.500013  0.999802  0.500022  0  .  1
   Ti  Ti35  1  0.499990  0.499988  0.500024  0  .  1
   Ti  Ti36  1  0.499926  0.499930  0.555577  0  .  1
   Ti  Ti37  1  0.500005  0.000080  0.611099  0  .  1
   Ti  Ti38  1  0.500017  0.500019  0.611099  0  .  1
   Ti  Ti39  1  -0.000050  0.499978  0.722230  0  .  1
   Ti  Ti40  1  0.500126  0.500125  0.666626  0  .  1
   Ti  Ti41  1  0.499979  -0.000049  0.722230  0  .  1
   Ti  Ti42  1  0.000081  0.500004  0.611099  0  .  1
   Ti  Ti43  1  0.500016  0.500016  0.722225  0  .  1
   Ti  Ti44  1  -0.000072  0.498014  0.833779  0  .  1
   Ti  Ti45  1  0.499450  0.499460  0.777963  0  .  1
   Ti  Ti46  1  0.498013  -0.000073  0.833779  0  .  1
   Ti  Ti47  1  0.498026  0.498026  0.833787  0  .  1
   Ti  Ti48  1  0.497526  0.497508  0.889712  0  .  1
   Ti  Ti49  1  0.500418  0.003793  0.943930  0  .  1
   Ti  Ti50  1  0.500450  0.500451  0.943924  0  .  1
   Ti  Ti51  1  0.003793  0.500418  0.943929  0  .  1
   O  O52  1  0.263915  0.263913  0.029102  0  .  1
   O  O53  1  0.263207  0.263209  0.078953  0  .  1
   O  O54  1  0.263806  0.710257  0.029114  0  .  1
   O  O55  1  0.710260  0.263804  0.029113  0  .  1
   O  O56  1  0.262591  0.262593  0.140333  0  .  1
   O  O57  1  0.297487  0.734983  0.081411  0  .  1
   O  O58  1  0.267200  0.267201  0.188738  0  .  1
   O  O59  1  0.734980  0.297494  0.081411  0  .  1
   O  O60  1  0.262397  0.711883  0.140350  0  .  1
   O  O61  1  0.738136  0.738137  0.031712  0  .  1
   O  O62  1  0.734765  0.734762  0.081442  0  .  1
   O  O63  1  0.711887  0.262396  0.140350  0  .  1
   O  O64  1  0.265120  0.265121  0.251910  0  .  1
   O  O65  1  0.288024  0.737607  0.192994  0  .  1
   O  O66  1  0.737603  0.288031  0.192994  0  .  1
   O  O67  1  0.261587  0.261589  0.301701  0  .  1
   O  O68  1  0.264943  0.702593  0.251935  0  .  1
   O  O69  1  0.732744  0.732743  0.144618  0  .  1
   O  O70  1  0.737429  0.737433  0.193009  0  .  1
   O  O71  1  0.702597  0.264941  0.251935  0  .  1
   O  O72  1  0.262569  0.262566  0.362583  0  .  1
   O  O73  1  0.288923  0.736288  0.304283  0  .  1
   O  O74  1  0.262337  0.262338  0.412539  0  .  1
   O  O75  1  0.736289  0.288921  0.304282  0  .  1
   O  O76  1  0.262648  0.711613  0.362567  0  .  1
   O  O77  1  0.736709  0.736711  0.254414  0  .  1
   O  O78  1  0.736278  0.736276  0.304281  0  .  1
   O  O79  1  0.711618  0.262645  0.362567  0  .  1
   O  O80  1  0.262380  0.262377  0.473644  0  .  1
   O  O81  1  0.287758  0.737404  0.415260  0  .  1
   O  O82  1  0.262393  0.262390  0.523617  0  .  1
   O  O83  1  0.737403  0.287763  0.415260  0  .  1
   O  O84  1  0.262605  0.712387  0.473620  0  .  1
   O  O85  1  0.737406  0.737409  0.365330  0  .  1
   O  O86  1  0.737578  0.737581  0.415242  0  .  1
   O  O87  1  0.712390  0.262602  0.473620  0  .  1
   O  O88  1  0.262215  0.262215  0.584772  0  .  1
   O  O89  1  0.287493  0.737559  0.526356  0  .  1
   O  O90  1  0.262383  0.262384  0.634729  0  .  1
   O  O91  1  0.262447  0.712510  0.584742  0  .  1
   O  O92  1  0.737556  0.287498  0.526355  0  .  1
   O  O93  1  0.737600  0.737603  0.476383  0  .  1
   O  O94  1  0.712511  0.262446  0.584742  0  .  1
   O  O95  1  0.737793  0.737796  0.526333  0  .  1
   O  O96  1  0.262384  0.262382  0.695863  0  .  1
   O  O97  1  0.287570  0.737504  0.637483  0  .  1
   O  O98  1  0.737502  0.287570  0.637483  0  .  1
   O  O99  1  0.262564  0.262562  0.745787  0  .  1
   O  O100  1  0.262558  0.712429  0.695841  0  .  1
   O  O101  1  0.737649  0.737648  0.587483  0  .  1
   O  O102  1  0.737690  0.737690  0.637456  0  .  1
   O  O103  1  0.712433  0.262555  0.695841  0  .  1
   O  O104  1  0.262651  0.262652  0.806861  0  .  1
   O  O105  1  0.288023  0.737405  0.748560  0  .  1
   O  O106  1  0.266568  0.266570  0.855578  0  .  1
   O  O107  1  0.737399  0.288030  0.748560  0  .  1
   O  O108  1  0.262758  0.712900  0.806853  0  .  1
   O  O109  1  0.737673  0.737673  0.698585  0  .  1
   O  O110  1  0.737619  0.737623  0.748534  0  .  1
   O  O111  1  0.712895  0.262762  0.806852  0  .  1
   O  O112  1  0.264994  0.264992  0.918547  0  .  1
   O  O113  1  0.288801  0.737867  0.859498  0  .  1
   O  O114  1  0.264910  0.703029  0.918559  0  .  1
   O  O115  1  0.737872  0.288797  0.859498  0  .  1
   O  O116  1  0.261895  0.261896  0.968272  0  .  1
   O  O117  1  0.737170  0.737167  0.809826  0  .  1
   O  O118  1  0.703040  0.264903  0.918559  0  .  1
   O  O119  1  0.737858  0.737857  0.859495  0  .  1
   O  O120  1  0.289698  0.736204  0.970891  0  .  1
   O  O121  1  0.736203  0.289702  0.970891  0  .  1
   O  O122  1  0.737029  0.737030  0.920975  0  .  1
   O  O123  1  0.736061  0.736062  0.970906  0  .  1
 
