#\#CIF1.1
##########################################################################
#               Crystallographic Information Format file 
#               Produced by PyCifRW module
# 
#  This is a CIF file.  CIF has been adopted by the International
#  Union of Crystallography as the standard for data archiving and 
#  transmission.
#
#  For information on this file format, follow the CIF links at
#  http://www.iucr.org
##########################################################################

data_Li5V5O12
_symmetry_space_group_name_H-M          'P 1'
_cell_length_a                          5.13653182512
_cell_length_b                          5.0900646133
_cell_length_c                          19.7807711225
_cell_angle_alpha                       85.3586943423
_cell_angle_beta                        88.0593631415
_cell_angle_gamma                       59.8580221333
_chemical_name_systematic               'Generated by pymatgen'
_symmetry_Int_Tables_number             1
_chemical_formula_structural            Li5V5O12
_chemical_formula_sum                   'Li10 V10 O24'
_cell_volume                            445.763138694
_cell_formula_units_Z                   2
loop_
  _symmetry_equiv_pos_site_id
  _symmetry_equiv_pos_as_xyz
   1  'x, y, z'
 
loop_
  _atom_site_type_symbol
  _atom_site_label
  _atom_site_symmetry_multiplicity
  _atom_site_fract_x
  _atom_site_fract_y
  _atom_site_fract_z
  _atom_site_attached_hydrogens
  _atom_site_B_iso_or_equiv
  _atom_site_occupancy
   Li  Li1  1  0.822272  0.840443  0.998529  0  .  1
   Li  Li2  1  0.818999  0.603199  0.751657  0  .  1
   Li  Li3  1  0.500265  0.878091  0.875496  0  .  1
   Li  Li4  1  0.827189  0.332760  0.498304  0  .  1
   Li  Li5  1  0.499144  0.517092  0.998338  0  .  1
   Li  Li6  1  0.503813  0.730285  0.251378  0  .  1
   Li  Li7  1  0.816484  0.089425  0.251316  0  .  1
   Li  Li8  1  0.170237  0.927773  0.751470  0  .  1
   Li  Li9  1  0.499247  0.374975  0.374846  0  .  1
   Li  Li10  1  0.505707  0.008374  0.498437  0  .  1
   V  V11  1  0.830193  0.962240  0.625253  0  .  1
   V  V12  1  0.832427  0.708689  0.376157  0  .  1
   V  V13  1  0.824700  0.213289  0.872936  0  .  1
   V  V14  1  0.835972  0.457681  0.125420  0  .  1
   V  V15  1  0.494886  0.626190  0.624574  0  .  1
   V  V16  1  0.169891  0.534145  0.876245  0  .  1
   V  V17  1  0.493447  0.128195  0.125058  0  .  1
   V  V18  1  0.160262  0.793129  0.125129  0  .  1
   V  V19  1  0.165263  0.296147  0.624788  0  .  1
   V  V20  1  0.171047  0.039303  0.373919  0  .  1
   O  O21  1  0.867201  0.894684  0.820765  0  .  1
   O  O22  1  0.850030  0.997627  0.427279  0  .  1
   O  O23  1  0.853289  0.492531  0.927401  0  .  1
   O  O24  1  0.819203  0.651568  0.570282  0  .  1
   O  O25  1  0.831185  0.780121  0.180446  0  .  1
   O  O26  1  0.849815  0.402926  0.322103  0  .  1
   O  O27  1  0.840110  0.272258  0.679765  0  .  1
   O  O28  1  0.502916  0.934949  0.680699  0  .  1
   O  O29  1  0.529149  0.711367  0.430225  0  .  1
   O  O30  1  0.512137  0.529288  0.821628  0  .  1
   O  O31  1  0.826121  0.141122  0.070264  0  .  1
   O  O32  1  0.499512  0.801987  0.069922  0  .  1
   O  O33  1  0.526661  0.205308  0.929164  0  .  1
   O  O34  1  0.501179  0.445897  0.180911  0  .  1
   O  O35  1  0.519277  0.288621  0.568988  0  .  1
   O  O36  1  0.155767  0.988251  0.569942  0  .  1
   O  O37  1  0.142766  0.840543  0.928160  0  .  1
   O  O38  1  0.524284  0.010269  0.319901  0  .  1
   O  O39  1  0.142181  0.632827  0.679936  0  .  1
   O  O40  1  0.147061  0.757224  0.323108  0  .  1
   O  O41  1  0.164287  0.504188  0.069519  0  .  1
   O  O42  1  0.133683  0.247103  0.822503  0  .  1
   O  O43  1  0.147251  0.343112  0.427541  0  .  1
   O  O44  1  0.165847  0.081593  0.180081  0  .  1
 
