#\#CIF1.1
##########################################################################
#               Crystallographic Information Format file 
#               Produced by PyCifRW module
# 
#  This is a CIF file.  CIF has been adopted by the International
#  Union of Crystallography as the standard for data archiving and 
#  transmission.
#
#  For information on this file format, follow the CIF links at
#  http://www.iucr.org
##########################################################################

data_Li5V12O32
_symmetry_space_group_name_H-M          'P 1'
_cell_length_a                          7.28022504
_cell_length_b                          7.69185555242
_cell_length_c                          12.1622073933
_cell_angle_alpha                       105.701056358
_cell_angle_beta                        90.0
_cell_angle_gamma                       118.244973058
_chemical_name_systematic               'Generated by pymatgen'
_symmetry_Int_Tables_number             1
_chemical_formula_structural            Li5V12O32
_chemical_formula_sum                   'Li5 V12 O32'
_cell_volume                            570.961079688
_cell_formula_units_Z                   1
loop_
  _symmetry_equiv_pos_site_id
  _symmetry_equiv_pos_as_xyz
   1  'x, y, z'
 
loop_
  _atom_site_type_symbol
  _atom_site_label
  _atom_site_symmetry_multiplicity
  _atom_site_fract_x
  _atom_site_fract_y
  _atom_site_fract_z
  _atom_site_attached_hydrogens
  _atom_site_B_iso_or_equiv
  _atom_site_occupancy
   Li  Li1  1  0.625444  0.500890  0.683996  0  .  1
   Li  Li2  1  0.124622  0.499245  0.684370  0  .  1
   Li  Li3  1  0.877568  0.500890  0.316157  0  .  1
   Li  Li4  1  0.373322  0.500890  0.316157  0  .  1
   Li  Li5  1  0.662792  0.575584  0.051647  0  .  1
   V  V6  1  0.912653  0.075306  0.806633  0  .  1
   V  V7  1  0.410223  0.070447  0.803646  0  .  1
   V  V8  1  0.703833  0.157246  0.463243  0  .  1
   V  V9  1  0.203414  0.157246  0.463243  0  .  1
   V  V10  1  0.473279  0.196557  0.079396  0  .  1
   V  V11  1  0.977679  0.205357  0.079614  0  .  1
   V  V12  1  0.521725  0.794580  0.919487  0  .  1
   V  V13  1  0.022854  0.794580  0.919487  0  .  1
   V  V14  1  0.796450  0.842901  0.537494  0  .  1
   V  V15  1  0.296622  0.843245  0.536693  0  .  1
   V  V16  1  0.590615  0.931627  0.196793  0  .  1
   V  V17  1  0.091012  0.931627  0.196793  0  .  1
   O  O18  1  0.131238  0.011496  0.826219  0  .  1
   O  O19  1  0.630258  0.011496  0.826219  0  .  1
   O  O20  1  0.516301  0.282603  0.954674  0  .  1
   O  O21  1  0.015924  0.281849  0.952598  0  .  1
   O  O22  1  0.909316  0.068632  0.460367  0  .  1
   O  O23  1  0.409048  0.068095  0.460223  0  .  1
   O  O24  1  0.985693  0.221385  0.720958  0  .  1
   O  O25  1  0.486418  0.222835  0.722161  0  .  1
   O  O26  1  0.724224  0.200005  0.327232  0  .  1
   O  O27  1  0.225781  0.200005  0.327232  0  .  1
   O  O28  1  0.318015  0.386133  0.562379  0  .  1
   O  O29  1  0.818119  0.386133  0.562379  0  .  1
   O  O30  1  0.684803  0.118814  0.071699  0  .  1
   O  O31  1  0.184011  0.118814  0.071699  0  .  1
   O  O32  1  0.913799  0.579625  0.810071  0  .  1
   O  O33  1  0.415826  0.579625  0.810071  0  .  1
   O  O34  1  0.587247  0.424495  0.182494  0  .  1
   O  O35  1  0.085035  0.420069  0.189300  0  .  1
   O  O36  1  0.314803  0.879606  0.930545  0  .  1
   O  O37  1  0.813900  0.877799  0.927912  0  .  1
   O  O38  1  0.682113  0.614227  0.437882  0  .  1
   O  O39  1  0.181985  0.613970  0.437957  0  .  1
   O  O40  1  0.775774  0.801548  0.673298  0  .  1
   O  O41  1  0.276215  0.802432  0.673528  0  .  1
   O  O42  1  0.514950  0.778228  0.278530  0  .  1
   O  O43  1  0.013277  0.778228  0.278530  0  .  1
   O  O44  1  0.590737  0.931968  0.539804  0  .  1
   O  O45  1  0.091232  0.931968  0.539804  0  .  1
   O  O46  1  0.972011  0.714577  0.046142  0  .  1
   O  O47  1  0.492567  0.714577  0.046142  0  .  1
   O  O48  1  0.868549  0.987097  0.174729  0  .  1
   O  O49  1  0.368223  0.986445  0.172546  0  .  1
 
