#\#CIF1.1
##########################################################################
#               Crystallographic Information Format file 
#               Produced by PyCifRW module
# 
#  This is a CIF file.  CIF has been adopted by the International
#  Union of Crystallography as the standard for data archiving and 
#  transmission.
#
#  For information on this file format, follow the CIF links at
#  http://www.iucr.org
##########################################################################

data_Li5V4O8
_symmetry_space_group_name_H-M          'P 1'
_cell_length_a                          6.06859486615
_cell_length_b                          6.05193308709
_cell_length_c                          6.0796446967
_cell_angle_alpha                       59.6260492639
_cell_angle_beta                        60.0438855856
_cell_angle_gamma                       59.8380716697
_chemical_name_systematic               'Generated by pymatgen'
_symmetry_Int_Tables_number             1
_chemical_formula_structural            Li5V4O8
_chemical_formula_sum                   'Li5 V4 O8'
_cell_volume                            157.294802638
_cell_formula_units_Z                   1
loop_
  _symmetry_equiv_pos_site_id
  _symmetry_equiv_pos_as_xyz
   1  'x, y, z'
 
loop_
  _atom_site_type_symbol
  _atom_site_label
  _atom_site_symmetry_multiplicity
  _atom_site_fract_x
  _atom_site_fract_y
  _atom_site_fract_z
  _atom_site_attached_hydrogens
  _atom_site_B_iso_or_equiv
  _atom_site_occupancy
   Li  Li1  1  0.019442  0.023807  0.020516  0  .  1
   Li  Li2  1  0.019067  0.443000  0.018097  0  .  1
   Li  Li3  1  0.020059  0.023200  0.436686  0  .  1
   Li  Li4  1  0.875699  0.872394  0.875744  0  .  1
   Li  Li5  1  0.436015  0.024767  0.020586  0  .  1
   V  V6  1  0.499827  0.500880  0.999780  0  .  1
   V  V7  1  0.499805  0.500068  0.499576  0  .  1
   V  V8  1  0.000597  0.499953  0.499679  0  .  1
   V  V9  1  0.500709  0.997790  0.501258  0  .  1
   O  O10  1  0.249681  0.267891  0.251050  0  .  1
   O  O11  1  0.732714  0.266306  0.250530  0  .  1
   O  O12  1  0.253273  0.741629  0.253021  0  .  1
   O  O13  1  0.251408  0.265868  0.732402  0  .  1
   O  O14  1  0.746909  0.257244  0.747308  0  .  1
   O  O15  1  0.750904  0.731228  0.265985  0  .  1
   O  O16  1  0.264876  0.730658  0.751777  0  .  1
   O  O17  1  0.754017  0.728319  0.751008  0  .  1
 
