#\#CIF1.1
##########################################################################
#               Crystallographic Information Format file 
#               Produced by PyCifRW module
# 
#  This is a CIF file.  CIF has been adopted by the International
#  Union of Crystallography as the standard for data archiving and 
#  transmission.
#
#  For information on this file format, follow the CIF links at
#  http://www.iucr.org
##########################################################################

data_Li5V7O12
_symmetry_space_group_name_H-M          'P 1'
_cell_length_a                          5.13543484947
_cell_length_b                          5.2054078061
_cell_length_c                          9.94478011848
_cell_angle_alpha                       95.3253278947
_cell_angle_beta                        78.9993613511
_cell_angle_gamma                       119.500735662
_chemical_name_systematic               'Generated by pymatgen'
_symmetry_Int_Tables_number             1
_chemical_formula_structural            Li5V7O12
_chemical_formula_sum                   'Li5 V7 O12'
_cell_volume                            227.125568447
_cell_formula_units_Z                   1
loop_
  _symmetry_equiv_pos_site_id
  _symmetry_equiv_pos_as_xyz
   1  'x, y, z'
 
loop_
  _atom_site_type_symbol
  _atom_site_label
  _atom_site_symmetry_multiplicity
  _atom_site_fract_x
  _atom_site_fract_y
  _atom_site_fract_z
  _atom_site_attached_hydrogens
  _atom_site_B_iso_or_equiv
  _atom_site_occupancy
   Li  Li1  1  0.161459  0.831167  0.003452  0  .  1
   Li  Li2  1  0.669286  0.832955  0.494978  0  .  1
   Li  Li3  1  0.082107  0.164646  0.250613  0  .  1
   Li  Li4  1  0.327155  0.164581  0.493883  0  .  1
   Li  Li5  1  0.840023  0.162070  0.008110  0  .  1
   V  V6  1  0.493333  0.488723  0.000087  0  .  1
   V  V7  1  0.236251  0.473435  0.749826  0  .  1
   V  V8  1  0.995982  0.489628  0.499378  0  .  1
   V  V9  1  0.574686  0.147980  0.750218  0  .  1
   V  V10  1  0.418999  0.839555  0.249913  0  .  1
   V  V11  1  0.913374  0.828306  0.749884  0  .  1
   V  V12  1  0.750238  0.500490  0.250272  0  .  1
   O  O13  1  0.037760  0.809537  0.369916  0  .  1
   O  O14  1  0.277778  0.796614  0.625788  0  .  1
   O  O15  1  0.145325  0.517007  0.128630  0  .  1
   O  O16  1  0.771886  0.810356  0.129412  0  .  1
   O  O17  1  0.517402  0.795430  0.874501  0  .  1
   O  O18  1  0.372287  0.517737  0.371573  0  .  1
   O  O19  1  0.619205  0.486799  0.626481  0  .  1
   O  O20  1  0.473004  0.182847  0.129073  0  .  1
   O  O21  1  0.867555  0.486667  0.873811  0  .  1
   O  O22  1  0.198969  0.163563  0.878578  0  .  1
   O  O23  1  0.709161  0.181826  0.370741  0  .  1
   O  O24  1  0.964413  0.163808  0.620791  0  .  1
 
