#\#CIF1.1
##########################################################################
#               Crystallographic Information Format file 
#               Produced by PyCifRW module
# 
#  This is a CIF file.  CIF has been adopted by the International
#  Union of Crystallography as the standard for data archiving and 
#  transmission.
#
#  For information on this file format, follow the CIF links at
#  http://www.iucr.org
##########################################################################

data_Li6CuO4
_symmetry_space_group_name_H-M          'P 1'
_cell_length_a                          4.58955884215
_cell_length_b                          6.63326455886
_cell_length_c                          6.633301122
_cell_angle_alpha                       90.0375167924
_cell_angle_beta                        90.0006416534
_cell_angle_gamma                       90.0008382218
_chemical_name_systematic               'Generated by pymatgen'
_symmetry_Int_Tables_number             1
_chemical_formula_structural            Li6CuO4
_chemical_formula_sum                   'Li12 Cu2 O8'
_cell_volume                            201.942570829
_cell_formula_units_Z                   2
loop_
  _symmetry_equiv_pos_site_id
  _symmetry_equiv_pos_as_xyz
   1  'x, y, z'
 
loop_
  _atom_site_type_symbol
  _atom_site_label
  _atom_site_symmetry_multiplicity
  _atom_site_fract_x
  _atom_site_fract_y
  _atom_site_fract_z
  _atom_site_attached_hydrogens
  _atom_site_B_iso_or_equiv
  _atom_site_occupancy
   Li  Li1  1  0.749988  0.968306  0.468301  0  .  1
   Li  Li2  1  0.751494  0.967561  0.030138  0  .  1
   Li  Li3  1  0.687447  0.748569  0.749201  0  .  1
   Li  Li4  1  0.187451  0.749206  0.748568  0  .  1
   Li  Li5  1  0.748498  0.530159  0.467554  0  .  1
   Li  Li6  1  0.750006  0.532681  0.032673  0  .  1
   Li  Li7  1  0.250003  0.468311  0.968308  0  .  1
   Li  Li8  1  0.248491  0.467554  0.530163  0  .  1
   Li  Li9  1  0.312549  0.248559  0.249183  0  .  1
   Li  Li10  1  0.812556  0.249191  0.248558  0  .  1
   Li  Li11  1  0.251497  0.030152  0.967550  0  .  1
   Li  Li12  1  0.249988  0.032678  0.532674  0  .  1
   Cu  Cu13  1  0.249983  0.749989  0.249989  0  .  1
   Cu  Cu14  1  0.749929  0.249974  0.749957  0  .  1
   O  O15  1  0.947245  0.982412  0.749786  0  .  1
   O  O16  1  0.447243  0.749801  0.982413  0  .  1
   O  O17  1  0.447371  0.749605  0.516503  0  .  1
   O  O18  1  0.947370  0.516498  0.749603  0  .  1
   O  O19  1  0.052769  0.482389  0.249806  0  .  1
   O  O20  1  0.552752  0.249802  0.482384  0  .  1
   O  O21  1  0.552622  0.249612  0.016478  0  .  1
   O  O22  1  0.052614  0.016485  0.249603  0  .  1
 
