#\#CIF1.1
##########################################################################
#               Crystallographic Information Format file 
#               Produced by PyCifRW module
# 
#  This is a CIF file.  CIF has been adopted by the International
#  Union of Crystallography as the standard for data archiving and 
#  transmission.
#
#  For information on this file format, follow the CIF links at
#  http://www.iucr.org
##########################################################################

data_Li6CrS4
_symmetry_space_group_name_H-M          'P 1'
_cell_length_a                          8.16292201149
_cell_length_b                          8.16353260092
_cell_length_c                          5.6356027408
_cell_angle_alpha                       90.0009258324
_cell_angle_beta                        89.9982219083
_cell_angle_gamma                       90.001297007
_chemical_name_systematic               'Generated by pymatgen'
_symmetry_Int_Tables_number             1
_chemical_formula_structural            Li6CrS4
_chemical_formula_sum                   'Li12 Cr2 S8'
_cell_volume                            375.546872857
_cell_formula_units_Z                   2
loop_
  _symmetry_equiv_pos_site_id
  _symmetry_equiv_pos_as_xyz
   1  'x, y, z'
 
loop_
  _atom_site_type_symbol
  _atom_site_label
  _atom_site_symmetry_multiplicity
  _atom_site_fract_x
  _atom_site_fract_y
  _atom_site_fract_z
  _atom_site_attached_hydrogens
  _atom_site_B_iso_or_equiv
  _atom_site_occupancy
   Li  Li1  1  0.026615  0.526603  0.749995  0  .  1
   Li  Li2  1  0.026590  0.973445  0.750016  0  .  1
   Li  Li3  1  0.250006  0.250006  0.698815  0  .  1
   Li  Li4  1  0.249995  0.250012  0.198830  0  .  1
   Li  Li5  1  0.473427  0.526583  0.749999  0  .  1
   Li  Li6  1  0.473436  0.973435  0.750001  0  .  1
   Li  Li7  1  0.526603  0.026591  0.249972  0  .  1
   Li  Li8  1  0.526626  0.473396  0.249975  0  .  1
   Li  Li9  1  0.750004  0.750016  0.301195  0  .  1
   Li  Li10  1  0.750022  0.749997  0.801203  0  .  1
   Li  Li11  1  0.973401  0.026601  0.249991  0  .  1
   Li  Li12  1  0.973399  0.473399  0.249973  0  .  1
   Cr  Cr13  1  0.249969  0.749986  0.250088  0  .  1
   Cr  Cr14  1  0.750039  0.250046  0.749964  0  .  1
   S  S15  1  0.009504  0.250021  0.950026  0  .  1
   S  S16  1  0.250010  0.009531  0.450026  0  .  1
   S  S17  1  0.250018  0.490507  0.450026  0  .  1
   S  S18  1  0.490507  0.250011  0.950003  0  .  1
   S  S19  1  0.509473  0.750001  0.049961  0  .  1
   S  S20  1  0.750006  0.990501  0.549996  0  .  1
   S  S21  1  0.750031  0.509503  0.549958  0  .  1
   S  S22  1  0.990499  0.749987  0.049988  0  .  1
 
