#\#CIF1.1
##########################################################################
#               Crystallographic Information Format file 
#               Produced by PyCifRW module
# 
#  This is a CIF file.  CIF has been adopted by the International
#  Union of Crystallography as the standard for data archiving and 
#  transmission.
#
#  For information on this file format, follow the CIF links at
#  http://www.iucr.org
##########################################################################

data_Li6CuS4
_symmetry_space_group_name_H-M          'P 1'
_cell_length_a                          7.68758090764
_cell_length_b                          7.68758090764
_cell_length_c                          3.60217669
_cell_angle_alpha                       76.4504976769
_cell_angle_beta                        103.549502323
_cell_angle_gamma                       124.247485488
_chemical_name_systematic               'Generated by pymatgen'
_symmetry_Int_Tables_number             1
_chemical_formula_structural            Li6CuS4
_chemical_formula_sum                   'Li6 Cu1 S4'
_cell_volume                            169.680242195
_cell_formula_units_Z                   1
loop_
  _symmetry_equiv_pos_site_id
  _symmetry_equiv_pos_as_xyz
   1  'x, y, z'
 
loop_
  _atom_site_type_symbol
  _atom_site_label
  _atom_site_symmetry_multiplicity
  _atom_site_fract_x
  _atom_site_fract_y
  _atom_site_fract_z
  _atom_site_attached_hydrogens
  _atom_site_B_iso_or_equiv
  _atom_site_occupancy
   Li  Li1  1  0.409592  0.170577  0.119508  0  .  1
   Li  Li2  1  0.821077  0.108243  0.356417  0  .  1
   Li  Li3  1  0.395442  0.770323  0.312560  0  .  1
   Li  Li4  1  0.770323  0.395442  0.687440  0  .  1
   Li  Li5  1  0.108243  0.821077  0.643583  0  .  1
   Li  Li6  1  0.170577  0.409592  0.880492  0  .  1
   Cu  Cu7  1  0.718496  0.718496  0.000000  0  .  1
   S  S8  1  0.025330  0.025330  0.000000  0  .  1
   S  S9  1  0.511734  0.018417  0.746658  0  .  1
   S  S10  1  0.018417  0.511734  0.253342  0  .  1
   S  S11  1  0.531948  0.531948  0.500000  0  .  1
 
