#\#CIF1.1
##########################################################################
#               Crystallographic Information Format file 
#               Produced by PyCifRW module
# 
#  This is a CIF file.  CIF has been adopted by the International
#  Union of Crystallography as the standard for data archiving and 
#  transmission.
#
#  For information on this file format, follow the CIF links at
#  http://www.iucr.org
##########################################################################

data_Li6FeO4
_symmetry_space_group_name_H-M          'P 1'
_cell_length_a                          6.71382269681
_cell_length_b                          6.71371640128
_cell_length_c                          4.67695559429
_cell_angle_alpha                       89.9989498552
_cell_angle_beta                        89.9952092126
_cell_angle_gamma                       89.9980545507
_chemical_name_systematic               'Generated by pymatgen'
_symmetry_Int_Tables_number             1
_chemical_formula_structural            Li6FeO4
_chemical_formula_sum                   'Li12 Fe2 O8'
_cell_volume                            210.812376704
_cell_formula_units_Z                   2
loop_
  _symmetry_equiv_pos_site_id
  _symmetry_equiv_pos_as_xyz
   1  'x, y, z'
 
loop_
  _atom_site_type_symbol
  _atom_site_label
  _atom_site_symmetry_multiplicity
  _atom_site_fract_x
  _atom_site_fract_y
  _atom_site_fract_z
  _atom_site_attached_hydrogens
  _atom_site_B_iso_or_equiv
  _atom_site_occupancy
   Li  Li1  1  0.035765  0.535756  0.749952  0  .  1
   Li  Li2  1  0.035535  0.964483  0.749973  0  .  1
   Li  Li3  1  0.250036  0.250016  0.697176  0  .  1
   Li  Li4  1  0.250013  0.250005  0.197177  0  .  1
   Li  Li5  1  0.464504  0.535510  0.750016  0  .  1
   Li  Li6  1  0.464295  0.964267  0.750025  0  .  1
   Li  Li7  1  0.535515  0.035500  0.250013  0  .  1
   Li  Li8  1  0.535589  0.464402  0.250007  0  .  1
   Li  Li9  1  0.750008  0.749991  0.302836  0  .  1
   Li  Li10  1  0.750010  0.750005  0.802834  0  .  1
   Li  Li11  1  0.964335  0.035654  0.249995  0  .  1
   Li  Li12  1  0.964456  0.464440  0.249987  0  .  1
   Fe  Fe13  1  0.249954  0.750063  0.249972  0  .  1
   Fe  Fe14  1  0.750048  0.250022  0.750028  0  .  1
   O  O15  1  0.016934  0.250004  0.958499  0  .  1
   O  O16  1  0.250236  0.016919  0.458532  0  .  1
   O  O17  1  0.249797  0.483163  0.458478  0  .  1
   O  O18  1  0.483116  0.249972  0.958472  0  .  1
   O  O19  1  0.516888  0.750220  0.041525  0  .  1
   O  O20  1  0.749995  0.983097  0.541528  0  .  1
   O  O21  1  0.750027  0.516905  0.541511  0  .  1
   O  O22  1  0.983120  0.749788  0.041463  0  .  1
 
