#\#CIF1.1
##########################################################################
#               Crystallographic Information Format file 
#               Produced by PyCifRW module
# 
#  This is a CIF file.  CIF has been adopted by the International
#  Union of Crystallography as the standard for data archiving and 
#  transmission.
#
#  For information on this file format, follow the CIF links at
#  http://www.iucr.org
##########################################################################

data_Li6Mn17O40
_symmetry_space_group_name_H-M          'P 1'
_cell_length_a                          5.81958381
_cell_length_b                          5.83587823784
_cell_length_c                          24.0514171297
_cell_angle_alpha                       83.3321609265
_cell_angle_beta                        90.0
_cell_angle_gamma                       60.0923194894
_chemical_name_systematic               'Generated by pymatgen'
_symmetry_Int_Tables_number             1
_chemical_formula_structural            Li6Mn17O40
_chemical_formula_sum                   'Li6 Mn17 O40'
_cell_volume                            701.683160539
_cell_formula_units_Z                   1
loop_
  _symmetry_equiv_pos_site_id
  _symmetry_equiv_pos_as_xyz
   1  'x, y, z'
 
loop_
  _atom_site_type_symbol
  _atom_site_label
  _atom_site_symmetry_multiplicity
  _atom_site_fract_x
  _atom_site_fract_y
  _atom_site_fract_z
  _atom_site_attached_hydrogens
  _atom_site_B_iso_or_equiv
  _atom_site_occupancy
   Li  Li1  1  0.223533  0.552933  0.172641  0  .  1
   Li  Li2  1  0.025507  0.948987  0.572443  0  .  1
   Li  Li3  1  0.772701  0.454597  0.825900  0  .  1
   Li  Li4  1  0.826704  0.346591  0.974700  0  .  1
   Li  Li5  1  0.624981  0.750038  0.375827  0  .  1
   Li  Li6  1  0.576295  0.847411  0.226885  0  .  1
   Mn  Mn7  1  0.096430  0.297239  0.299065  0  .  1
   Mn  Mn8  1  0.195891  0.101623  0.100947  0  .  1
   Mn  Mn9  1  0.001529  0.500148  0.499651  0  .  1
   Mn  Mn10  1  0.300386  0.399227  0.401074  0  .  1
   Mn  Mn11  1  0.096553  0.806893  0.299167  0  .  1
   Mn  Mn12  1  0.100290  0.799419  0.801385  0  .  1
   Mn  Mn13  1  0.499626  0.000747  0.000337  0  .  1
   Mn  Mn14  1  0.498322  0.500148  0.499651  0  .  1
   Mn  Mn15  1  0.399799  0.700368  0.699838  0  .  1
   Mn  Mn16  1  0.300745  0.899804  0.900368  0  .  1
   Mn  Mn17  1  0.606331  0.297239  0.299065  0  .  1
   Mn  Mn18  1  0.702487  0.101623  0.100947  0  .  1
   Mn  Mn19  1  0.699050  0.601900  0.598239  0  .  1
   Mn  Mn20  1  0.899836  0.200328  0.699870  0  .  1
   Mn  Mn21  1  0.701897  0.596205  0.100856  0  .  1
   Mn  Mn22  1  0.799451  0.899804  0.900368  0  .  1
   Mn  Mn23  1  0.899833  0.700368  0.699838  0  .  1
   O  O24  1  0.011391  0.416837  0.654012  0  .  1
   O  O25  1  0.038326  0.398261  0.139834  0  .  1
   O  O26  1  0.237447  0.000846  0.260496  0  .  1
   O  O27  1  0.187136  0.147268  0.952739  0  .  1
   O  O28  1  0.136961  0.250605  0.447578  0  .  1
   O  O29  1  0.253187  0.493625  0.257730  0  .  1
   O  O30  1  0.136408  0.727185  0.940337  0  .  1
   O  O31  1  0.053056  0.893887  0.657819  0  .  1
   O  O32  1  0.227639  0.544722  0.746845  0  .  1
   O  O33  1  0.464862  0.070275  0.859799  0  .  1
   O  O34  1  0.337015  0.325970  0.540010  0  .  1
   O  O35  1  0.429936  0.140129  0.348098  0  .  1
   O  O36  1  0.372450  0.255100  0.052625  0  .  1
   O  O37  1  0.168606  0.662788  0.453256  0  .  1
   O  O38  1  0.037014  0.925972  0.140048  0  .  1
   O  O39  1  0.428967  0.583546  0.347373  0  .  1
   O  O40  1  0.227837  0.983553  0.745932  0  .  1
   O  O41  1  0.410918  0.653054  0.847207  0  .  1
   O  O42  1  0.665594  0.147268  0.952739  0  .  1
   O  O43  1  0.612434  0.250605  0.447578  0  .  1
   O  O44  1  0.563413  0.398261  0.139834  0  .  1
   O  O45  1  0.761707  0.000846  0.260496  0  .  1
   O  O46  1  0.388803  0.747441  0.552787  0  .  1
   O  O47  1  0.571773  0.416837  0.654012  0  .  1
   O  O48  1  0.373305  0.817880  0.053457  0  .  1
   O  O49  1  0.634687  0.730627  0.946783  0  .  1
   O  O50  1  0.833261  0.333480  0.547336  0  .  1
   O  O51  1  0.762676  0.474647  0.260149  0  .  1
   O  O52  1  0.852910  0.294179  0.057829  0  .  1
   O  O53  1  0.571953  0.856095  0.653088  0  .  1
   O  O54  1  0.746503  0.506995  0.741879  0  .  1
   O  O55  1  0.668417  0.663167  0.457372  0  .  1
   O  O56  1  0.546869  0.906263  0.142814  0  .  1
   O  O57  1  0.965652  0.068697  0.853009  0  .  1
   O  O58  1  0.946423  0.107154  0.341499  0  .  1
   O  O59  1  0.808814  0.817880  0.053457  0  .  1
   O  O60  1  0.863756  0.747441  0.552787  0  .  1
   O  O61  1  0.936027  0.653054  0.847207  0  .  1
   O  O62  1  0.788610  0.983553  0.745932  0  .  1
   O  O63  1  0.987487  0.583546  0.347373  0  .  1
 
