#\#CIF1.1
##########################################################################
#               Crystallographic Information Format file 
#               Produced by PyCifRW module
# 
#  This is a CIF file.  CIF has been adopted by the International
#  Union of Crystallography as the standard for data archiving and 
#  transmission.
#
#  For information on this file format, follow the CIF links at
#  http://www.iucr.org
##########################################################################

data_Li6MnS4
_symmetry_space_group_name_H-M          'P 1'
_cell_length_a                          8.0470430005
_cell_length_b                          8.04718183023
_cell_length_c                          5.80386019053
_cell_angle_alpha                       89.9991550548
_cell_angle_beta                        90.0012672315
_cell_angle_gamma                       89.9997199732
_chemical_name_systematic               'Generated by pymatgen'
_symmetry_Int_Tables_number             1
_chemical_formula_structural            Li6MnS4
_chemical_formula_sum                   'Li12 Mn2 S8'
_cell_volume                            375.834876111
_cell_formula_units_Z                   2
loop_
  _symmetry_equiv_pos_site_id
  _symmetry_equiv_pos_as_xyz
   1  'x, y, z'
 
loop_
  _atom_site_type_symbol
  _atom_site_label
  _atom_site_symmetry_multiplicity
  _atom_site_fract_x
  _atom_site_fract_y
  _atom_site_fract_z
  _atom_site_attached_hydrogens
  _atom_site_B_iso_or_equiv
  _atom_site_occupancy
   Li  Li1  1  0.024332  0.524322  0.750006  0  .  1
   Li  Li2  1  0.024343  0.975688  0.750044  0  .  1
   Li  Li3  1  0.250008  0.250004  0.712343  0  .  1
   Li  Li4  1  0.250016  0.250013  0.212334  0  .  1
   Li  Li5  1  0.475688  0.524331  0.750002  0  .  1
   Li  Li6  1  0.475687  0.975704  0.749985  0  .  1
   Li  Li7  1  0.524326  0.024344  0.249988  0  .  1
   Li  Li8  1  0.524320  0.475690  0.249993  0  .  1
   Li  Li9  1  0.749999  0.750010  0.287685  0  .  1
   Li  Li10  1  0.750011  0.750015  0.787673  0  .  1
   Li  Li11  1  0.975693  0.024332  0.250013  0  .  1
   Li  Li12  1  0.975690  0.475673  0.250006  0  .  1
   Mn  Mn13  1  0.250009  0.750005  0.250021  0  .  1
   Mn  Mn14  1  0.750005  0.250011  0.749971  0  .  1
   S  S15  1  0.006918  0.249989  0.965700  0  .  1
   S  S16  1  0.250004  0.006923  0.465698  0  .  1
   S  S17  1  0.250006  0.493088  0.465689  0  .  1
   S  S18  1  0.493100  0.250016  0.965687  0  .  1
   S  S19  1  0.506913  0.750023  0.034276  0  .  1
   S  S20  1  0.750019  0.993101  0.534279  0  .  1
   S  S21  1  0.750007  0.506920  0.534288  0  .  1
   S  S22  1  0.993084  0.749975  0.034318  0  .  1
 
