#\#CIF1.1
##########################################################################
#               Crystallographic Information Format file 
#               Produced by PyCifRW module
# 
#  This is a CIF file.  CIF has been adopted by the International
#  Union of Crystallography as the standard for data archiving and 
#  transmission.
#
#  For information on this file format, follow the CIF links at
#  http://www.iucr.org
##########################################################################

data_Li6NiO4
_symmetry_space_group_name_H-M          'P 1'
_cell_length_a                          6.64025723915
_cell_length_b                          6.5468014076
_cell_length_c                          4.65888084007
_cell_angle_alpha                       90.0005149348
_cell_angle_beta                        89.9996300753
_cell_angle_gamma                       89.7201662201
_chemical_name_systematic               'Generated by pymatgen'
_symmetry_Int_Tables_number             1
_chemical_formula_structural            Li6NiO4
_chemical_formula_sum                   'Li12 Ni2 O8'
_cell_volume                            202.530527549
_cell_formula_units_Z                   2
loop_
  _symmetry_equiv_pos_site_id
  _symmetry_equiv_pos_as_xyz
   1  'x, y, z'
 
loop_
  _atom_site_type_symbol
  _atom_site_label
  _atom_site_symmetry_multiplicity
  _atom_site_fract_x
  _atom_site_fract_y
  _atom_site_fract_z
  _atom_site_attached_hydrogens
  _atom_site_B_iso_or_equiv
  _atom_site_occupancy
   Li  Li1  1  0.033088  0.533652  0.748497  0  .  1
   Li  Li2  1  0.030121  0.969247  0.748800  0  .  1
   Li  Li3  1  0.250017  0.250013  0.697859  0  .  1
   Li  Li4  1  0.250005  0.250010  0.197690  0  .  1
   Li  Li5  1  0.469915  0.530796  0.748798  0  .  1
   Li  Li6  1  0.466926  0.966358  0.748498  0  .  1
   Li  Li7  1  0.529676  0.029104  0.250670  0  .  1
   Li  Li8  1  0.535002  0.465494  0.251104  0  .  1
   Li  Li9  1  0.750005  0.750009  0.303358  0  .  1
   Li  Li10  1  0.750017  0.750018  0.803563  0  .  1
   Li  Li11  1  0.965013  0.034521  0.251103  0  .  1
   Li  Li12  1  0.970324  0.470901  0.250668  0  .  1
   Ni  Ni13  1  0.249998  0.749987  0.241963  0  .  1
   Ni  Ni14  1  0.749998  0.250006  0.755244  0  .  1
   O  O15  1  0.016141  0.254604  0.958136  0  .  1
   O  O16  1  0.245854  0.011978  0.459876  0  .  1
   O  O17  1  0.254176  0.488040  0.459887  0  .  1
   O  O18  1  0.483865  0.245411  0.958144  0  .  1
   O  O19  1  0.517029  0.746126  0.042363  0  .  1
   O  O20  1  0.744953  0.987278  0.540706  0  .  1
   O  O21  1  0.755063  0.512735  0.540710  0  .  1
   O  O22  1  0.982992  0.753896  0.042361  0  .  1
 
