#\#CIF1.1
##########################################################################
#               Crystallographic Information Format file 
#               Produced by PyCifRW module
# 
#  This is a CIF file.  CIF has been adopted by the International
#  Union of Crystallography as the standard for data archiving and 
#  transmission.
#
#  For information on this file format, follow the CIF links at
#  http://www.iucr.org
##########################################################################

data_Li7(NiO2)9
_symmetry_space_group_name_H-M          'P 1'
_cell_length_a                          8.6391762536
_cell_length_b                          5.83192592234
_cell_length_c                          6.4251561288
_cell_angle_alpha                       104.112730589
_cell_angle_beta                        77.1377674404
_cell_angle_gamma                       90.5169314022
_chemical_name_systematic               'Generated by pymatgen'
_symmetry_Int_Tables_number             1
_chemical_formula_structural            Li7(NiO2)9
_chemical_formula_sum                   'Li7 Ni9 O18'
_cell_volume                            305.719968855
_cell_formula_units_Z                   1
loop_
  _symmetry_equiv_pos_site_id
  _symmetry_equiv_pos_as_xyz
   1  'x, y, z'
 
loop_
  _atom_site_type_symbol
  _atom_site_label
  _atom_site_symmetry_multiplicity
  _atom_site_fract_x
  _atom_site_fract_y
  _atom_site_fract_z
  _atom_site_attached_hydrogens
  _atom_site_B_iso_or_equiv
  _atom_site_occupancy
   Li  Li1  1  0.766808  0.343912  0.340079  0  .  1
   Li  Li2  1  0.666667  0.000000  0.000000  0  .  1
   Li  Li3  1  0.566525  0.656088  0.659921  0  .  1
   Li  Li4  1  0.338030  0.005033  0.004996  0  .  1
   Li  Li5  1  0.220888  0.661543  0.654669  0  .  1
   Li  Li6  1  0.112445  0.338457  0.345331  0  .  1
   Li  Li7  1  0.995303  0.994967  0.995004  0  .  1
   Ni  Ni8  1  0.889342  0.169631  0.667735  0  .  1
   Ni  Ni9  1  0.778417  0.839149  0.333775  0  .  1
   Ni  Ni10  1  0.666667  0.500000  0.000000  0  .  1
   Ni  Ni11  1  0.554916  0.160851  0.666225  0  .  1
   Ni  Ni12  1  0.443991  0.830369  0.332265  0  .  1
   Ni  Ni13  1  0.226207  0.164378  0.667084  0  .  1
   Ni  Ni14  1  0.334192  0.487917  0.002742  0  .  1
   Ni  Ni15  1  0.107126  0.835622  0.332916  0  .  1
   Ni  Ni16  1  0.999141  0.512083  0.997258  0  .  1
   O  O17  1  0.946027  0.058709  0.335742  0  .  1
   O  O18  1  0.944451  0.613852  0.314781  0  .  1
   O  O19  1  0.836178  0.291832  0.000732  0  .  1
   O  O20  1  0.704617  0.391421  0.678040  0  .  1
   O  O21  1  0.824448  0.766307  0.027963  0  .  1
   O  O22  1  0.710962  0.932760  0.649007  0  .  1
   O  O23  1  0.628717  0.608579  0.321960  0  .  1
   O  O24  1  0.622371  0.067240  0.350993  0  .  1
   O  O25  1  0.508885  0.233693  0.972037  0  .  1
   O  O26  1  0.497156  0.708168  0.999268  0  .  1
   O  O27  1  0.387306  0.941291  0.664258  0  .  1
   O  O28  1  0.388882  0.386147  0.685219  0  .  1
   O  O29  1  0.259321  0.602346  0.318461  0  .  1
   O  O30  1  0.259851  0.066326  0.352696  0  .  1
   O  O31  1  0.177292  0.255955  0.980454  0  .  1
   O  O32  1  0.156041  0.744045  0.019546  0  .  1
   O  O33  1  0.074012  0.397654  0.681539  0  .  1
   O  O34  1  0.073483  0.933674  0.647304  0  .  1
 
