#\#CIF1.1
##########################################################################
#               Crystallographic Information Format file 
#               Produced by PyCifRW module
# 
#  This is a CIF file.  CIF has been adopted by the International
#  Union of Crystallography as the standard for data archiving and 
#  transmission.
#
#  For information on this file format, follow the CIF links at
#  http://www.iucr.org
##########################################################################

data_Li7(CoO3)2
_symmetry_space_group_name_H-M          'P 1'
_cell_length_a                          3.74096914
_cell_length_b                          8.74802711387
_cell_length_c                          8.74802736912
_cell_angle_alpha                       89.981496148
_cell_angle_beta                        90.0
_cell_angle_gamma                       90.0
_chemical_name_systematic               'Generated by pymatgen'
_symmetry_Int_Tables_number             1
_chemical_formula_structural            Li7(CoO3)2
_chemical_formula_sum                   'Li14 Co4 O12'
_cell_volume                            286.288798908
_cell_formula_units_Z                   2
loop_
  _symmetry_equiv_pos_site_id
  _symmetry_equiv_pos_as_xyz
   1  'x, y, z'
 
loop_
  _atom_site_type_symbol
  _atom_site_label
  _atom_site_symmetry_multiplicity
  _atom_site_fract_x
  _atom_site_fract_y
  _atom_site_fract_z
  _atom_site_attached_hydrogens
  _atom_site_B_iso_or_equiv
  _atom_site_occupancy
   Li  Li1  1  0.754935  0.500003  0.999998  0  .  1
   Li  Li2  1  0.462023  0.674807  0.111511  0  .  1
   Li  Li3  1  0.000000  0.843717  0.156283  0  .  1
   Li  Li4  1  0.042150  0.387836  0.175415  0  .  1
   Li  Li5  1  0.499998  0.344319  0.344317  0  .  1
   Li  Li6  1  0.537977  0.888489  0.325193  0  .  1
   Li  Li7  1  0.957850  0.175415  0.387836  0  .  1
   Li  Li8  1  0.245062  0.000001  0.499996  0  .  1
   Li  Li9  1  0.957850  0.824585  0.612164  0  .  1
   Li  Li10  1  0.537977  0.111511  0.674807  0  .  1
   Li  Li11  1  0.499998  0.655683  0.655681  0  .  1
   Li  Li12  1  0.042150  0.612164  0.824585  0  .  1
   Li  Li13  1  0.000000  0.156283  0.843717  0  .  1
   Li  Li14  1  0.462023  0.325193  0.888489  0  .  1
   Co  Co15  1  0.000000  0.615805  0.384195  0  .  1
   Co  Co16  1  0.000000  0.384195  0.615805  0  .  1
   Co  Co17  1  0.500000  0.115778  0.115778  0  .  1
   Co  Co18  1  0.500000  0.884222  0.884222  0  .  1
   O  O19  1  0.500000  0.898893  0.101107  0  .  1
   O  O20  1  0.529966  0.330142  0.115171  0  .  1
   O  O21  1  0.975138  0.614909  0.169816  0  .  1
   O  O22  1  0.470034  0.115171  0.330142  0  .  1
   O  O23  1  0.024862  0.830184  0.385091  0  .  1
   O  O24  1  0.000000  0.399045  0.399045  0  .  1
   O  O25  1  0.000000  0.600955  0.600955  0  .  1
   O  O26  1  0.024862  0.169816  0.614909  0  .  1
   O  O27  1  0.470034  0.884829  0.669858  0  .  1
   O  O28  1  0.975138  0.385091  0.830184  0  .  1
   O  O29  1  0.529966  0.669858  0.884829  0  .  1
   O  O30  1  0.500000  0.101107  0.898893  0  .  1
 
