#\#CIF1.1
##########################################################################
#               Crystallographic Information Format file 
#               Produced by PyCifRW module
# 
#  This is a CIF file.  CIF has been adopted by the International
#  Union of Crystallography as the standard for data archiving and 
#  transmission.
#
#  For information on this file format, follow the CIF links at
#  http://www.iucr.org
##########################################################################

data_Li7(NiO2)8
_symmetry_space_group_name_H-M          'P 1'
_cell_length_a                          10.1047720549
_cell_length_b                          14.6612331441
_cell_length_c                          19.1724914214
_cell_angle_alpha                       15.8095664856
_cell_angle_beta                        21.9944681663
_cell_angle_gamma                       22.318646398
_chemical_name_systematic               'Generated by pymatgen'
_symmetry_Int_Tables_number             1
_chemical_formula_structural            Li7(NiO2)8
_chemical_formula_sum                   'Li7 Ni8 O16'
_cell_volume                            274.295602913
_cell_formula_units_Z                   1
loop_
  _symmetry_equiv_pos_site_id
  _symmetry_equiv_pos_as_xyz
   1  'x, y, z'
 
loop_
  _atom_site_type_symbol
  _atom_site_label
  _atom_site_symmetry_multiplicity
  _atom_site_fract_x
  _atom_site_fract_y
  _atom_site_fract_z
  _atom_site_attached_hydrogens
  _atom_site_B_iso_or_equiv
  _atom_site_occupancy
   Li  Li1  1  0.500000  0.000000  0.000000  0  .  1
   Li  Li2  1  0.258995  0.489616  0.004123  0  .  1
   Li  Li3  1  0.121519  0.267960  0.488167  0  .  1
   Li  Li4  1  0.741005  0.510384  0.995877  0  .  1
   Li  Li5  1  0.617794  0.245944  0.506819  0  .  1
   Li  Li6  1  0.382206  0.754056  0.493181  0  .  1
   Li  Li7  1  0.878481  0.732040  0.511833  0  .  1
   Ni  Ni8  1  0.057158  0.129273  0.247748  0  .  1
   Ni  Ni9  1  0.563289  0.119608  0.252571  0  .  1
   Ni  Ni10  1  0.322443  0.625834  0.243453  0  .  1
   Ni  Ni11  1  0.186421  0.376490  0.748375  0  .  1
   Ni  Ni12  1  0.813579  0.623510  0.251625  0  .  1
   Ni  Ni13  1  0.677557  0.374166  0.756547  0  .  1
   Ni  Ni14  1  0.436711  0.880392  0.747429  0  .  1
   Ni  Ni15  1  0.942842  0.870727  0.752252  0  .  1
   O  O16  1  0.031110  0.068558  0.110904  0  .  1
   O  O17  1  0.504594  0.071618  0.120812  0  .  1
   O  O18  1  0.102904  0.171968  0.389202  0  .  1
   O  O19  1  0.297902  0.520036  0.140011  0  .  1
   O  O20  1  0.607727  0.204599  0.360837  0  .  1
   O  O21  1  0.176082  0.314602  0.603077  0  .  1
   O  O22  1  0.781652  0.582490  0.106446  0  .  1
   O  O23  1  0.346141  0.661499  0.398663  0  .  1
   O  O24  1  0.653860  0.338501  0.601337  0  .  1
   O  O25  1  0.218348  0.417510  0.893554  0  .  1
   O  O26  1  0.823918  0.685398  0.396923  0  .  1
   O  O27  1  0.392273  0.795401  0.639163  0  .  1
   O  O28  1  0.702098  0.479964  0.859989  0  .  1
   O  O29  1  0.897096  0.828032  0.610798  0  .  1
   O  O30  1  0.495406  0.928382  0.879188  0  .  1
   O  O31  1  0.968890  0.931442  0.889096  0  .  1
 
