#\#CIF1.1
##########################################################################
#               Crystallographic Information Format file 
#               Produced by PyCifRW module
# 
#  This is a CIF file.  CIF has been adopted by the International
#  Union of Crystallography as the standard for data archiving and 
#  transmission.
#
#  For information on this file format, follow the CIF links at
#  http://www.iucr.org
##########################################################################

data_Li7MnAs4
_symmetry_space_group_name_H-M          'P 1'
_cell_length_a                          6.03409491437
_cell_length_b                          11.9592733209
_cell_length_c                          8.47037842552
_cell_angle_alpha                       44.9387514652
_cell_angle_beta                        89.7036275039
_cell_angle_gamma                       89.8735002549
_chemical_name_systematic               'Generated by pymatgen'
_symmetry_Int_Tables_number             1
_chemical_formula_structural            Li7MnAs4
_chemical_formula_sum                   'Li14 Mn2 As8'
_cell_volume                            431.750910341
_cell_formula_units_Z                   2
loop_
  _symmetry_equiv_pos_site_id
  _symmetry_equiv_pos_as_xyz
   1  'x, y, z'
 
loop_
  _atom_site_type_symbol
  _atom_site_label
  _atom_site_symmetry_multiplicity
  _atom_site_fract_x
  _atom_site_fract_y
  _atom_site_fract_z
  _atom_site_attached_hydrogens
  _atom_site_B_iso_or_equiv
  _atom_site_occupancy
   Li  Li1  1  0.187962  0.995403  0.003310  0  .  1
   Li  Li2  1  0.822134  0.515719  0.986873  0  .  1
   Li  Li3  1  0.249779  0.239188  0.499542  0  .  1
   Li  Li4  1  0.249800  0.762802  0.499482  0  .  1
   Li  Li5  1  0.249951  0.998951  0.500827  0  .  1
   Li  Li6  1  0.249480  0.235933  0.023642  0  .  1
   Li  Li7  1  0.250288  0.759383  0.976755  0  .  1
   Li  Li8  1  0.686226  0.002967  0.005572  0  .  1
   Li  Li9  1  0.319473  0.498321  0.993846  0  .  1
   Li  Li10  1  0.751399  0.265655  0.977208  0  .  1
   Li  Li11  1  0.751000  0.500871  0.500744  0  .  1
   Li  Li12  1  0.750105  0.742354  0.023548  0  .  1
   Li  Li13  1  0.750441  0.262773  0.498366  0  .  1
   Li  Li14  1  0.750691  0.739300  0.498613  0  .  1
   Mn  Mn15  1  0.250292  0.501100  0.500973  0  .  1
   Mn  Mn16  1  0.752265  0.999942  0.498049  0  .  1
   As  As17  1  0.037408  0.499973  0.266102  0  .  1
   As  As18  1  0.963342  0.001249  0.732286  0  .  1
   As  As19  1  0.537364  0.232665  0.268887  0  .  1
   As  As20  1  0.464483  0.266070  0.733778  0  .  1
   As  As21  1  0.464022  0.736119  0.264240  0  .  1
   As  As22  1  0.537708  0.767783  0.733440  0  .  1
   As  As23  1  0.038116  0.500276  0.733676  0  .  1
   As  As24  1  0.961824  0.001174  0.267550  0  .  1
 
