#\#CIF1.1
##########################################################################
#               Crystallographic Information Format file 
#               Produced by PyCifRW module
# 
#  This is a CIF file.  CIF has been adopted by the International
#  Union of Crystallography as the standard for data archiving and 
#  transmission.
#
#  For information on this file format, follow the CIF links at
#  http://www.iucr.org
##########################################################################

data_Li7Mn17O32
_symmetry_space_group_name_H-M          'P 1'
_cell_length_a                          23.4472002428
_cell_length_b                          8.27561216801
_cell_length_c                          10.28343903
_cell_angle_alpha                       66.1631493118
_cell_angle_beta                        30.9904388738
_cell_angle_gamma                       45.0982343765
_chemical_name_systematic               'Generated by pymatgen'
_symmetry_Int_Tables_number             1
_chemical_formula_structural            Li7Mn17O32
_chemical_formula_sum                   'Li7 Mn17 O32'
_cell_volume                            607.24947599
_cell_formula_units_Z                   1
loop_
  _symmetry_equiv_pos_site_id
  _symmetry_equiv_pos_as_xyz
   1  'x, y, z'
 
loop_
  _atom_site_type_symbol
  _atom_site_label
  _atom_site_symmetry_multiplicity
  _atom_site_fract_x
  _atom_site_fract_y
  _atom_site_fract_z
  _atom_site_attached_hydrogens
  _atom_site_B_iso_or_equiv
  _atom_site_occupancy
   Li  Li1  1  0.062265  0.123358  0.750388  0  .  1
   Li  Li2  1  0.189166  0.871668  0.250000  0  .  1
   Li  Li3  1  0.315170  0.123410  0.742669  0  .  1
   Li  Li4  1  0.435778  0.878444  0.250000  0  .  1
   Li  Li5  1  0.562653  0.126804  0.749612  0  .  1
   Li  Li6  1  0.807839  0.130572  0.757331  0  .  1
   Li  Li7  1  0.938489  0.873023  0.250000  0  .  1
   Mn  Mn8  1  0.130301  0.995877  0.988362  0  .  1
   Mn  Mn9  1  0.999471  0.500338  0.005368  0  .  1
   Mn  Mn10  1  0.998043  0.502642  0.505549  0  .  1
   Mn  Mn11  1  0.373484  0.001589  0.002990  0  .  1
   Mn  Mn12  1  0.253592  0.494089  0.994451  0  .  1
   Mn  Mn13  1  0.126474  0.498496  0.497010  0  .  1
   Mn  Mn14  1  0.248081  0.502011  0.502957  0  .  1
   Mn  Mn15  1  0.618413  0.006744  0.009388  0  .  1
   Mn  Mn16  1  0.501039  0.499749  0.997043  0  .  1
   Mn  Mn17  1  0.377801  0.500826  0.490612  0  .  1
   Mn  Mn18  1  0.502922  0.500593  0.491331  0  .  1
   Mn  Mn19  1  0.744253  0.505056  0.008669  0  .  1
   Mn  Mn20  1  0.876221  0.000803  -0.000023  0  .  1
   Mn  Mn21  1  0.626198  0.494359  0.500023  0  .  1
   Mn  Mn22  1  0.689238  0.871525  0.250000  0  .  1
   Mn  Mn23  1  0.754838  0.491044  0.494632  0  .  1
   Mn  Mn24  1  0.868662  0.506196  0.511638  0  .  1
   O  O25  1  0.113817  0.255226  0.006706  0  .  1
   O  O26  1  0.253898  0.252216  0.006063  0  .  1
   O  O27  1  0.128561  0.266746  0.480713  0  .  1
   O  O28  1  0.009961  0.720068  0.493937  0  .  1
   O  O29  1  0.359274  0.257583  0.019287  0  .  1
   O  O30  1  0.216017  0.298042  0.557119  0  .  1
   O  O31  1  0.126705  0.724103  0.511928  0  .  1
   O  O32  1  0.993449  0.744216  0.001869  0  .  1
   O  O33  1  0.506227  0.246985  0.005229  0  .  1
   O  O34  1  0.389524  0.256196  0.458488  0  .  1
   O  O35  1  0.261456  0.717650  0.494771  0  .  1
   O  O36  1  0.598012  0.268731  0.041512  0  .  1
   O  O37  1  0.162230  0.717317  0.938759  0  .  1
   O  O38  1  0.496510  0.280118  0.490390  0  .  1
   O  O39  1  0.387312  0.713387  0.489183  0  .  1
   O  O40  1  0.274390  0.722720  0.937461  0  .  1
   O  O41  1  0.734354  0.273269  0.042239  0  .  1
   O  O42  1  0.618451  0.279586  0.492582  0  .  1
   O  O43  1  0.526593  0.704838  0.457761  0  .  1
   O  O44  1  0.861033  0.261446  0.007418  0  .  1
   O  O45  1  0.388634  0.745218  0.988072  0  .  1
   O  O46  1  0.745318  0.278250  0.498131  0  .  1
   O  O47  1  0.625784  0.726850  0.515522  0  .  1
   O  O48  1  0.523135  0.723655  0.942881  0  .  1
   O  O49  1  0.983330  0.274537  0.044241  0  .  1
   O  O50  1  0.870523  0.276095  0.493294  0  .  1
   O  O51  1  0.777571  0.703661  0.455759  0  .  1
   O  O52  1  0.626495  0.758998  0.010817  0  .  1
   O  O53  1  0.961850  0.304799  0.562539  0  .  1
   O  O54  1  0.850989  0.756244  0.561241  0  .  1
   O  O55  1  0.736900  0.753063  0.009610  0  .  1
   O  O56  1  0.891306  0.738970  0.984478  0  .  1
 
