#\#CIF1.1
##########################################################################
#               Crystallographic Information Format file 
#               Produced by PyCifRW module
# 
#  This is a CIF file.  CIF has been adopted by the International
#  Union of Crystallography as the standard for data archiving and 
#  transmission.
#
#  For information on this file format, follow the CIF links at
#  http://www.iucr.org
##########################################################################

data_Li7Mn4O12
_symmetry_space_group_name_H-M          'P 1'
_cell_length_a                          4.99944476566
_cell_length_b                          4.99970933528
_cell_length_c                          9.73975397372
_cell_angle_alpha                       94.5192246841
_cell_angle_beta                        94.3788954097
_cell_angle_gamma                       119.546885123
_chemical_name_systematic               'Generated by pymatgen'
_symmetry_Int_Tables_number             1
_chemical_formula_structural            Li7Mn4O12
_chemical_formula_sum                   'Li7 Mn4 O12'
_cell_volume                            209.262508385
_cell_formula_units_Z                   1
loop_
  _symmetry_equiv_pos_site_id
  _symmetry_equiv_pos_as_xyz
   1  'x, y, z'
 
loop_
  _atom_site_type_symbol
  _atom_site_label
  _atom_site_symmetry_multiplicity
  _atom_site_fract_x
  _atom_site_fract_y
  _atom_site_fract_z
  _atom_site_attached_hydrogens
  _atom_site_B_iso_or_equiv
  _atom_site_occupancy
   Li  Li1  1  0.003921  0.502435  0.999518  0  .  1
   Li  Li2  1  0.822845  0.633325  0.493901  0  .  1
   Li  Li3  1  0.502174  0.004449  0.499707  0  .  1
   Li  Li4  1  0.373543  0.182483  0.007586  0  .  1
   Li  Li5  1  0.684005  0.871321  0.006670  0  .  1
   Li  Li6  1  0.148594  0.337784  0.499930  0  .  1
   Li  Li7  1  0.252873  0.747727  0.751589  0  .  1
   Mn  Mn8  1  0.919442  0.078077  0.749968  0  .  1
   Mn  Mn9  1  0.583663  0.414324  0.750379  0  .  1
   Mn  Mn10  1  0.417635  0.586464  0.250414  0  .  1
   Mn  Mn11  1  0.083140  0.920616  0.250744  0  .  1
   O  O12  1  0.857159  0.352089  0.635476  0  .  1
   O  O13  1  0.647043  0.142043  0.865356  0  .  1
   O  O14  1  0.926439  0.779073  0.861306  0  .  1
   O  O15  1  0.717795  0.591783  0.136529  0  .  1
   O  O16  1  0.783061  0.913655  0.364455  0  .  1
   O  O17  1  0.411278  0.286863  0.364716  0  .  1
   O  O18  1  0.574523  0.712296  0.638775  0  .  1
   O  O19  1  0.219029  0.070650  0.638937  0  .  1
   O  O20  1  0.283626  0.421174  0.861309  0  .  1
   O  O21  1  0.090420  0.219476  0.136172  0  .  1
   O  O22  1  0.342572  0.844656  0.134290  0  .  1
   O  O23  1  0.159116  0.662109  0.366824  0  .  1
 
