#\#CIF1.1
##########################################################################
#               Crystallographic Information Format file 
#               Produced by PyCifRW module
# 
#  This is a CIF file.  CIF has been adopted by the International
#  Union of Crystallography as the standard for data archiving and 
#  transmission.
#
#  For information on this file format, follow the CIF links at
#  http://www.iucr.org
##########################################################################

data_Li7Mn11O24
_symmetry_space_group_name_H-M          'P 1'
_cell_length_a                          5.86218474996
_cell_length_b                          5.86218507176
_cell_length_c                          53.3463707926
_cell_angle_alpha                       59.6010920604
_cell_angle_beta                        59.601090213
_cell_angle_gamma                       60.7878671766
_chemical_name_systematic               'Generated by pymatgen'
_symmetry_Int_Tables_number             1
_chemical_formula_structural            Li7Mn11O24
_chemical_formula_sum                   'Li21 Mn33 O72'
_cell_volume                            1295.83884715
_cell_formula_units_Z                   3
loop_
  _symmetry_equiv_pos_site_id
  _symmetry_equiv_pos_as_xyz
   1  'x, y, z'
 
loop_
  _atom_site_type_symbol
  _atom_site_label
  _atom_site_symmetry_multiplicity
  _atom_site_fract_x
  _atom_site_fract_y
  _atom_site_fract_z
  _atom_site_attached_hydrogens
  _atom_site_B_iso_or_equiv
  _atom_site_occupancy
   Li  Li1  1  0.129487  0.129487  0.011744  0  .  1
   Li  Li2  1  0.125788  0.125788  0.125713  0  .  1
   Li  Li3  1  0.125785  0.125785  0.235562  0  .  1
   Li  Li4  1  0.874343  0.874343  0.096060  0  .  1
   Li  Li5  1  0.127060  0.127060  0.346774  0  .  1
   Li  Li6  1  0.125657  0.125657  0.459495  0  .  1
   Li  Li7  1  0.872940  0.872940  0.208781  0  .  1
   Li  Li8  1  0.874215  0.874215  0.319993  0  .  1
   Li  Li9  1  0.114500  0.114500  0.570730  0  .  1
   Li  Li10  1  0.874212  0.874212  0.429843  0  .  1
   Li  Li11  1  0.126522  0.126522  0.679067  0  .  1
   Li  Li12  1  0.499819  0.499819  0.611376  0  .  1
   Li  Li13  1  0.870513  0.870513  0.543812  0  .  1
   Li  Li14  1  0.117385  0.117385  0.794399  0  .  1
   Li  Li15  1  0.887985  0.887985  0.651372  0  .  1
   Li  Li16  1  0.500000  0.500000  0.777778  0  .  1
   Li  Li17  1  0.112015  0.112015  0.904184  0  .  1
   Li  Li18  1  0.882615  0.882615  0.761158  0  .  1
   Li  Li19  1  0.500181  0.500181  0.944179  0  .  1
   Li  Li20  1  0.873478  0.873478  0.876489  0  .  1
   Li  Li21  1  0.885500  0.885500  0.984825  0  .  1
   Mn  Mn22  1  0.002947  0.498902  0.054448  0  .  1
   Mn  Mn23  1  0.498902  0.002947  0.054448  0  .  1
   Mn  Mn24  1  0.506225  0.506225  -0.002244  0  .  1
   Mn  Mn25  1  0.501566  0.501566  0.054432  0  .  1
   Mn  Mn26  1  0.001457  0.503066  0.166773  0  .  1
   Mn  Mn27  1  0.497902  0.497902  0.110530  0  .  1
   Mn  Mn28  1  0.499912  0.499912  0.166783  0  .  1
   Mn  Mn29  1  0.000000  0.500000  0.277778  0  .  1
   Mn  Mn30  1  0.503066  0.001457  0.166773  0  .  1
   Mn  Mn31  1  0.497789  0.497789  0.222288  0  .  1
   Mn  Mn32  1  0.500000  0.500000  0.277778  0  .  1
   Mn  Mn33  1  -0.001457  0.496934  0.388783  0  .  1
   Mn  Mn34  1  0.502211  0.502211  0.333267  0  .  1
   Mn  Mn35  1  0.500000  0.000000  0.277778  0  .  1
   Mn  Mn36  1  0.500088  0.500088  0.388773  0  .  1
   Mn  Mn37  1  0.997053  0.501098  0.501108  0  .  1
   Mn  Mn38  1  0.496934  -0.001457  0.388783  0  .  1
   Mn  Mn39  1  0.501098  0.997053  0.501108  0  .  1
   Mn  Mn40  1  0.502098  0.502098  0.445025  0  .  1
   Mn  Mn41  1  0.498434  0.498434  0.501124  0  .  1
   Mn  Mn42  1  0.998530  0.498373  0.611281  0  .  1
   Mn  Mn43  1  0.498373  0.998530  0.611281  0  .  1
   Mn  Mn44  1  0.493775  0.493775  0.557800  0  .  1
   Mn  Mn45  1  -0.003971  0.502555  0.722139  0  .  1
   Mn  Mn46  1  0.502615  0.502615  0.665805  0  .  1
   Mn  Mn47  1  0.502555  -0.003971  0.722139  0  .  1
   Mn  Mn48  1  0.501141  0.501141  0.722242  0  .  1
   Mn  Mn49  1  0.003971  0.497445  0.833416  0  .  1
   Mn  Mn50  1  0.498859  0.498859  0.833313  0  .  1
   Mn  Mn51  1  0.001470  0.501627  0.944274  0  .  1
   Mn  Mn52  1  0.497445  0.003971  0.833416  0  .  1
   Mn  Mn53  1  0.501627  0.001470  0.944274  0  .  1
   Mn  Mn54  1  0.497385  0.497385  0.889751  0  .  1
   O  O55  1  0.267151  0.267151  0.028191  0  .  1
   O  O56  1  0.264539  0.264539  0.078902  0  .  1
   O  O57  1  0.270248  0.707831  0.028846  0  .  1
   O  O58  1  0.707831  0.270248  0.028846  0  .  1
   O  O59  1  0.284914  0.747007  0.078914  0  .  1
   O  O60  1  0.266563  0.266563  0.139155  0  .  1
   O  O61  1  0.747007  0.284914  0.078914  0  .  1
   O  O62  1  0.267936  0.267936  0.191021  0  .  1
   O  O63  1  0.260282  0.713064  0.142416  0  .  1
   O  O64  1  0.736781  0.736781  0.030947  0  .  1
   O  O65  1  0.735746  0.735746  0.080640  0  .  1
   O  O66  1  0.713064  0.260282  0.142416  0  .  1
   O  O67  1  0.262074  0.262074  0.250582  0  .  1
   O  O68  1  0.293534  0.730887  0.193117  0  .  1
   O  O69  1  0.730887  0.293534  0.193117  0  .  1
   O  O70  1  0.733988  0.733988  0.142182  0  .  1
   O  O71  1  0.267371  0.267371  0.301420  0  .  1
   O  O72  1  0.255970  0.713674  0.249154  0  .  1
   O  O73  1  0.713674  0.255970  0.249154  0  .  1
   O  O74  1  0.730685  0.730685  0.195188  0  .  1
   O  O75  1  0.286326  0.744030  0.306402  0  .  1
   O  O76  1  0.269315  0.269315  0.360368  0  .  1
   O  O77  1  0.266012  0.266012  0.413373  0  .  1
   O  O78  1  0.744030  0.286326  0.306402  0  .  1
   O  O79  1  0.269113  0.706466  0.362439  0  .  1
   O  O80  1  0.732629  0.732629  0.254135  0  .  1
   O  O81  1  0.706466  0.269113  0.362439  0  .  1
   O  O82  1  0.737926  0.737926  0.304974  0  .  1
   O  O83  1  0.264254  0.264254  0.474916  0  .  1
   O  O84  1  0.286936  0.739718  0.413140  0  .  1
   O  O85  1  0.252993  0.715086  0.476642  0  .  1
   O  O86  1  0.263219  0.263219  0.524608  0  .  1
   O  O87  1  0.732064  0.732064  0.364534  0  .  1
   O  O88  1  0.739718  0.286936  0.413140  0  .  1
   O  O89  1  0.715086  0.252993  0.476642  0  .  1
   O  O90  1  0.733437  0.733437  0.416401  0  .  1
   O  O91  1  0.256671  0.256671  0.585671  0  .  1
   O  O92  1  0.292169  0.729752  0.526710  0  .  1
   O  O93  1  0.254671  0.254671  0.633681  0  .  1
   O  O94  1  0.729752  0.292169  0.526710  0  .  1
   O  O95  1  0.735461  0.735461  0.476654  0  .  1
   O  O96  1  0.258252  0.710957  0.581781  0  .  1
   O  O97  1  0.732849  0.732849  0.527365  0  .  1
   O  O98  1  0.710957  0.258252  0.581781  0  .  1
   O  O99  1  0.289499  0.742873  0.639837  0  .  1
   O  O100  1  0.266227  0.266227  0.695648  0  .  1
   O  O101  1  0.261146  0.261146  0.745462  0  .  1
   O  O102  1  0.742873  0.289499  0.639837  0  .  1
   O  O103  1  0.270035  0.706656  0.695828  0  .  1
   O  O104  1  0.745972  0.745972  0.588448  0  .  1
   O  O105  1  0.706656  0.270035  0.695828  0  .  1
   O  O106  1  0.742273  0.742273  0.636708  0  .  1
   O  O107  1  0.248399  0.248399  0.810870  0  .  1
   O  O108  1  0.291103  0.747665  0.745186  0  .  1
   O  O109  1  0.260434  0.260434  0.857195  0  .  1
   O  O110  1  0.739566  0.739566  0.698361  0  .  1
   O  O111  1  0.252335  0.708897  0.810369  0  .  1
   O  O112  1  0.747665  0.291103  0.745186  0  .  1
   O  O113  1  0.708897  0.252335  0.810369  0  .  1
   O  O114  1  0.751601  0.751601  0.744686  0  .  1
   O  O115  1  0.257727  0.257727  0.918847  0  .  1
   O  O116  1  0.293344  0.729965  0.859727  0  .  1
   O  O117  1  0.257127  0.710501  0.915718  0  .  1
   O  O118  1  0.254028  0.254028  0.967108  0  .  1
   O  O119  1  0.729965  0.293344  0.859727  0  .  1
   O  O120  1  0.738854  0.738854  0.810094  0  .  1
   O  O121  1  0.710501  0.257127  0.915718  0  .  1
   O  O122  1  0.733773  0.733773  0.859907  0  .  1
   O  O123  1  0.289043  0.741748  0.973774  0  .  1
   O  O124  1  0.741748  0.289043  0.973774  0  .  1
   O  O125  1  0.745329  0.745329  0.921875  0  .  1
   O  O126  1  0.743329  0.743329  0.969884  0  .  1
 
