#\#CIF1.1
##########################################################################
#               Crystallographic Information Format file 
#               Produced by PyCifRW module
# 
#  This is a CIF file.  CIF has been adopted by the International
#  Union of Crystallography as the standard for data archiving and 
#  transmission.
#
#  For information on this file format, follow the CIF links at
#  http://www.iucr.org
##########################################################################

data_Li7Mn5O12
_symmetry_space_group_name_H-M          'P 1'
_cell_length_a                          5.12148311474
_cell_length_b                          5.12355987513
_cell_length_c                          9.81540565487
_cell_angle_alpha                       94.7487749128
_cell_angle_beta                        85.3032056294
_cell_angle_gamma                       59.7532605815
_chemical_name_systematic               'Generated by pymatgen'
_symmetry_Int_Tables_number             1
_chemical_formula_structural            Li7Mn5O12
_chemical_formula_sum                   'Li7 Mn5 O12'
_cell_volume                            219.435200257
_cell_formula_units_Z                   1
loop_
  _symmetry_equiv_pos_site_id
  _symmetry_equiv_pos_as_xyz
   1  'x, y, z'
 
loop_
  _atom_site_type_symbol
  _atom_site_label
  _atom_site_symmetry_multiplicity
  _atom_site_fract_x
  _atom_site_fract_y
  _atom_site_fract_z
  _atom_site_attached_hydrogens
  _atom_site_B_iso_or_equiv
  _atom_site_occupancy
   Li  Li1  1  0.322787  0.864092  0.510289  0  .  1
   Li  Li2  1  0.005469  0.498713  0.502770  0  .  1
   Li  Li3  1  0.182939  0.641764  0.992153  0  .  1
   Li  Li4  1  0.253179  0.253175  0.749997  0  .  1
   Li  Li5  1  0.641722  0.182899  0.507831  0  .  1
   Li  Li6  1  0.498749  0.005383  0.997239  0  .  1
   Li  Li7  1  0.864119  0.322809  0.989726  0  .  1
   Mn  Mn8  1  0.087375  0.087386  0.250039  0  .  1
   Mn  Mn9  1  0.748285  0.748381  0.250004  0  .  1
   Mn  Mn10  1  0.409785  0.409718  0.249946  0  .  1
   Mn  Mn11  1  0.586247  0.586225  0.750001  0  .  1
   Mn  Mn12  1  0.918873  0.918898  0.750001  0  .  1
   O  O13  1  0.052090  0.763053  0.358069  0  .  1
   O  O14  1  0.216531  0.925285  0.861238  0  .  1
   O  O15  1  0.444379  0.734121  0.141545  0  .  1
   O  O16  1  0.132665  0.365606  0.119871  0  .  1
   O  O17  1  0.288525  0.579838  0.638620  0  .  1
   O  O18  1  0.646763  0.858150  0.639616  0  .  1
   O  O19  1  0.365339  0.132277  0.380213  0  .  1
   O  O20  1  0.733676  0.444278  0.358367  0  .  1
   O  O21  1  0.858268  0.646819  0.860386  0  .  1
   O  O22  1  0.579829  0.288613  0.861353  0  .  1
   O  O23  1  0.763323  0.052171  0.141925  0  .  1
   O  O24  1  0.925242  0.216459  0.638793  0  .  1
 
