#\#CIF1.1
##########################################################################
#               Crystallographic Information Format file 
#               Produced by PyCifRW module
# 
#  This is a CIF file.  CIF has been adopted by the International
#  Union of Crystallography as the standard for data archiving and 
#  transmission.
#
#  For information on this file format, follow the CIF links at
#  http://www.iucr.org
##########################################################################

data_Li7Ti5O12
_symmetry_space_group_name_H-M          'P 1'
_cell_length_a                          5.08089827729
_cell_length_b                          5.0808978586
_cell_length_c                          9.9818415439
_cell_angle_alpha                       85.1618932845
_cell_angle_beta                        94.8381081169
_cell_angle_gamma                       59.9864163317
_chemical_name_systematic               'Generated by pymatgen'
_symmetry_Int_Tables_number             1
_chemical_formula_structural            Li7Ti5O12
_chemical_formula_sum                   'Li7 Ti5 O12'
_cell_volume                            219.933823674
_cell_formula_units_Z                   1
loop_
  _symmetry_equiv_pos_site_id
  _symmetry_equiv_pos_as_xyz
   1  'x, y, z'
 
loop_
  _atom_site_type_symbol
  _atom_site_label
  _atom_site_symmetry_multiplicity
  _atom_site_fract_x
  _atom_site_fract_y
  _atom_site_fract_z
  _atom_site_attached_hydrogens
  _atom_site_B_iso_or_equiv
  _atom_site_occupancy
   Li  Li1  1  0.995584  0.504047  0.006887  0  .  1
   Li  Li2  1  0.157979  0.669276  0.494330  0  .  1
   Li  Li3  1  0.504047  0.995584  0.493113  0  .  1
   Li  Li4  1  0.669276  0.157979  0.005670  0  .  1
   Li  Li5  1  0.342516  0.832524  0.008143  0  .  1
   Li  Li6  1  0.832524  0.342516  0.491856  0  .  1
   Li  Li7  1  0.747984  0.747984  0.250000  0  .  1
   Ti  Ti8  1  0.080822  0.080822  0.250000  0  .  1
   Ti  Ti9  1  0.251822  0.251822  0.750000  0  .  1
   Ti  Ti10  1  0.918678  0.918678  0.750000  0  .  1
   Ti  Ti11  1  0.414276  0.414276  0.250000  0  .  1
   Ti  Ti12  1  0.585789  0.585789  0.750000  0  .  1
   O  O13  1  0.139692  0.355817  0.362983  0  .  1
   O  O14  1  0.355817  0.139692  0.137017  0  .  1
   O  O15  1  0.064688  0.785278  0.136927  0  .  1
   O  O16  1  0.291979  0.545638  0.868739  0  .  1
   O  O17  1  0.212255  0.958189  0.630812  0  .  1
   O  O18  1  0.545638  0.291979  0.631261  0  .  1
   O  O19  1  0.430888  0.710314  0.362867  0  .  1
   O  O20  1  0.785278  0.064688  0.363073  0  .  1
   O  O21  1  0.710314  0.430888  0.137133  0  .  1
   O  O22  1  0.958189  0.212255  0.869188  0  .  1
   O  O23  1  0.625466  0.878498  0.871439  0  .  1
   O  O24  1  0.878498  0.625466  0.628561  0  .  1
 
