#\#CIF1.1
##########################################################################
#               Crystallographic Information Format file 
#               Produced by PyCifRW module
# 
#  This is a CIF file.  CIF has been adopted by the International
#  Union of Crystallography as the standard for data archiving and 
#  transmission.
#
#  For information on this file format, follow the CIF links at
#  http://www.iucr.org
##########################################################################

data_Li7Ti11O24
_symmetry_space_group_name_H-M          'P 1'
_cell_length_a                          5.97610914352
_cell_length_b                          10.3653630313
_cell_length_c                          8.47817460178
_cell_angle_alpha                       114.208433988
_cell_angle_beta                        90.082540195
_cell_angle_gamma                       73.2061728057
_chemical_name_systematic               'Generated by pymatgen'
_symmetry_Int_Tables_number             1
_chemical_formula_structural            Li7Ti11O24
_chemical_formula_sum                   'Li7 Ti11 O24'
_cell_volume                            454.425761696
_cell_formula_units_Z                   1
loop_
  _symmetry_equiv_pos_site_id
  _symmetry_equiv_pos_as_xyz
   1  'x, y, z'
 
loop_
  _atom_site_type_symbol
  _atom_site_label
  _atom_site_symmetry_multiplicity
  _atom_site_fract_x
  _atom_site_fract_y
  _atom_site_fract_z
  _atom_site_attached_hydrogens
  _atom_site_B_iso_or_equiv
  _atom_site_occupancy
   Li  Li1  1  0.996139  0.003014  0.002042  0  .  1
   Li  Li2  1  0.667278  0.661398  0.332006  0  .  1
   Li  Li3  1  0.084634  0.332667  0.293898  0  .  1
   Li  Li4  1  0.500134  0.004038  0.251384  0  .  1
   Li  Li5  1  0.169643  0.662435  0.580864  0  .  1
   Li  Li6  1  0.334622  0.333143  0.668403  0  .  1
   Li  Li7  1  0.837758  0.332223  0.913575  0  .  1
   Ti  Ti8  1  0.085638  0.832325  0.291872  0  .  1
   Ti  Ti9  1  0.242264  0.497136  0.134701  0  .  1
   Ti  Ti10  1  0.584622  0.333797  0.291908  0  .  1
   Ti  Ti11  1  0.760378  0.496298  0.614001  0  .  1
   Ti  Ti12  1  0.925774  0.168503  0.448480  0  .  1
   Ti  Ti13  1  0.585421  0.833627  0.792772  0  .  1
   Ti  Ti14  1  0.250599  0.000258  0.625973  0  .  1
   Ti  Ti15  1  0.917979  0.664600  0.957944  0  .  1
   Ti  Ti16  1  0.748998  0.002007  0.624903  0  .  1
   Ti  Ti17  1  0.415909  0.666213  0.957541  0  .  1
   Ti  Ti18  1  0.408046  0.170255  0.970861  0  .  1
   O  O19  1  0.592874  0.816606  0.020658  0  .  1
   O  O20  1  0.090077  0.816939  0.046670  0  .  1
   O  O21  1  0.941967  0.665469  0.195996  0  .  1
   O  O22  1  0.390575  0.666264  0.194255  0  .  1
   O  O23  1  0.119772  0.333009  0.039199  0  .  1
   O  O24  1  0.561401  0.333522  0.055551  0  .  1
   O  O25  1  0.271312  0.486174  0.350106  0  .  1
   O  O26  1  0.077233  0.849459  0.536919  0  .  1
   O  O27  1  0.427350  0.178635  0.195369  0  .  1
   O  O28  1  0.742392  0.487082  0.387856  0  .  1
   O  O29  1  0.897638  0.178686  0.233752  0  .  1
   O  O30  1  0.575627  0.849389  0.563746  0  .  1
   O  O31  1  0.607635  0.332733  0.528240  0  .  1
   O  O32  1  0.048197  0.333709  0.544308  0  .  1
   O  O33  1  0.443157  0.668261  0.723275  0  .  1
   O  O34  1  0.893343  0.665323  0.720379  0  .  1
   O  O35  1  0.776915  0.000484  0.389686  0  .  1
   O  O36  1  0.226310  0.000980  0.387806  0  .  1
   O  O37  1  0.738588  0.519337  0.871661  0  .  1
   O  O38  1  0.926841  0.146235  0.686391  0  .  1
   O  O39  1  0.242669  0.519237  0.897648  0  .  1
   O  O40  1  0.428292  0.147045  0.710471  0  .  1
   O  O41  1  0.274757  0.002389  0.864387  0  .  1
   O  O42  1  0.724558  0.000227  0.859800  0  .  1
 
