#\#CIF1.1
##########################################################################
#               Crystallographic Information Format file 
#               Produced by PyCifRW module
# 
#  This is a CIF file.  CIF has been adopted by the International
#  Union of Crystallography as the standard for data archiving and 
#  transmission.
#
#  For information on this file format, follow the CIF links at
#  http://www.iucr.org
##########################################################################

data_Li7Ti12O24
_symmetry_space_group_name_H-M          'P 1'
_cell_length_a                          3.9985071529
_cell_length_b                          4.01907990175
_cell_length_c                          31.1849244089
_cell_angle_alpha                       112.697316643
_cell_angle_beta                        112.558619948
_cell_angle_gamma                       90.0129530489
_chemical_name_systematic               'Generated by pymatgen'
_symmetry_Int_Tables_number             1
_chemical_formula_structural            Li7Ti12O24
_chemical_formula_sum                   'Li7 Ti12 O24'
_cell_volume                            420.451674424
_cell_formula_units_Z                   1
loop_
  _symmetry_equiv_pos_site_id
  _symmetry_equiv_pos_as_xyz
   1  'x, y, z'
 
loop_
  _atom_site_type_symbol
  _atom_site_label
  _atom_site_symmetry_multiplicity
  _atom_site_fract_x
  _atom_site_fract_y
  _atom_site_fract_z
  _atom_site_attached_hydrogens
  _atom_site_B_iso_or_equiv
  _atom_site_occupancy
   Li  Li1  1  0.371595  0.620960  0.957064  0  .  1
   Li  Li2  1  0.617206  0.367243  0.872213  0  .  1
   Li  Li3  1  0.615234  0.364324  0.705106  0  .  1
   Li  Li4  1  0.620052  0.371789  0.540253  0  .  1
   Li  Li5  1  0.365495  0.614977  0.288433  0  .  1
   Li  Li6  1  0.631641  0.381400  0.377301  0  .  1
   Li  Li7  1  0.359970  0.609224  0.119976  0  .  1
   O  O8  1  0.113817  0.363723  0.871093  0  .  1
   O  O9  1  0.352496  0.102034  0.950729  0  .  1
   O  O10  1  0.102455  0.351081  0.700834  0  .  1
   O  O11  1  0.368580  0.118656  0.789429  0  .  1
   O  O12  1  0.645803  0.895638  0.881739  0  .  1
   O  O13  1  0.886699  0.636135  0.962119  0  .  1
   O  O14  1  0.108476  0.357656  0.536384  0  .  1
   O  O15  1  0.351758  0.099741  0.617398  0  .  1
   O  O16  1  0.641551  0.891034  0.713813  0  .  1
   O  O17  1  0.881047  0.631261  0.793528  0  .  1
   O  O18  1  0.102244  0.352006  0.367487  0  .  1
   O  O19  1  0.368138  0.117671  0.456229  0  .  1
   O  O20  1  0.643138  0.890297  0.547868  0  .  1
   O  O21  1  0.899556  0.640133  0.633298  0  .  1
   O  O22  1  0.116279  0.365627  0.205391  0  .  1
   O  O23  1  0.361483  0.110983  0.287118  0  .  1
   O  O24  1  0.636514  0.886402  0.378928  0  .  1
   O  O25  1  0.882139  0.631840  0.460882  0  .  1
   O  O26  1  0.115445  0.364896  0.038497  0  .  1
   O  O27  1  0.353533  0.102995  0.117890  0  .  1
   O  O28  1  0.631284  0.880547  0.210351  0  .  1
   O  O29  1  0.896503  0.646076  0.298790  0  .  1
   O  O30  1  0.643457  0.892983  0.047848  0  .  1
   O  O31  1  0.889675  0.639055  0.129887  0  .  1
   Ti  Ti32  1  0.107933  0.857834  0.869070  0  .  1
   Ti  Ti33  1  0.138574  0.889200  0.712784  0  .  1
   Ti  Ti34  1  0.891678  0.141173  0.963799  0  .  1
   Ti  Ti35  1  0.114329  0.863899  0.538254  0  .  1
   Ti  Ti36  1  0.875077  0.125926  0.791593  0  .  1
   Ti  Ti37  1  0.139942  0.889607  0.380058  0  .  1
   Ti  Ti38  1  0.872561  0.150398  0.624361  0  .  1
   Ti  Ti39  1  0.122236  0.871446  0.207331  0  .  1
   Ti  Ti40  1  0.874716  0.124169  0.458430  0  .  1
   Ti  Ti41  1  0.120028  0.868991  0.039853  0  .  1
   Ti  Ti42  1  0.858483  0.108138  0.286132  0  .  1
   Ti  Ti43  1  0.886182  0.135832  0.128791  0  .  1
 
