#\#CIF1.1
##########################################################################
#               Crystallographic Information Format file 
#               Produced by PyCifRW module
# 
#  This is a CIF file.  CIF has been adopted by the International
#  Union of Crystallography as the standard for data archiving and 
#  transmission.
#
#  For information on this file format, follow the CIF links at
#  http://www.iucr.org
##########################################################################

data_Li8CrS6
_symmetry_space_group_name_H-M          'P 1'
_cell_length_a                          6.85174350002
_cell_length_b                          6.85178099626
_cell_length_c                          13.3707990501
_cell_angle_alpha                       90.0003350136
_cell_angle_beta                        90.0001771064
_cell_angle_gamma                       119.999626358
_chemical_name_systematic               'Generated by pymatgen'
_symmetry_Int_Tables_number             1
_chemical_formula_structural            Li8CrS6
_chemical_formula_sum                   'Li16 Cr2 S12'
_cell_volume                            543.618462929
_cell_formula_units_Z                   2
loop_
  _symmetry_equiv_pos_site_id
  _symmetry_equiv_pos_as_xyz
   1  'x, y, z'
 
loop_
  _atom_site_type_symbol
  _atom_site_label
  _atom_site_symmetry_multiplicity
  _atom_site_fract_x
  _atom_site_fract_y
  _atom_site_fract_z
  _atom_site_attached_hydrogens
  _atom_site_B_iso_or_equiv
  _atom_site_occupancy
   Li  Li1  1  0.999991  0.685543  0.765712  0  .  1
   Li  Li2  1  0.999986  0.621125  0.130157  0  .  1
   Li  Li3  1  -0.000001  0.378859  0.630162  0  .  1
   Li  Li4  1  0.999991  0.314458  0.265715  0  .  1
   Li  Li5  1  0.333316  0.666670  0.402900  0  .  1
   Li  Li6  1  0.333310  0.666644  0.902903  0  .  1
   Li  Li7  1  0.314446  0.314453  0.765706  0  .  1
   Li  Li8  1  0.378857  0.378854  0.130160  0  .  1
   Li  Li9  1  0.621134  0.621141  0.630161  0  .  1
   Li  Li10  1  0.314450  0.999989  0.265713  0  .  1
   Li  Li11  1  0.685524  0.685525  0.265713  0  .  1
   Li  Li12  1  0.378855  0.000004  0.630160  0  .  1
   Li  Li13  1  0.666642  0.333317  0.902901  0  .  1
   Li  Li14  1  0.666667  0.333346  0.402904  0  .  1
   Li  Li15  1  0.621123  0.999992  0.130155  0  .  1
   Li  Li16  1  0.685536  -0.000002  0.765711  0  .  1
   Cr  Cr17  1  -0.000022  -0.000014  0.998585  0  .  1
   Cr  Cr18  1  0.000058  0.000102  0.498580  0  .  1
   S  S19  1  0.999985  0.695290  0.950736  0  .  1
   S  S20  1  -0.000001  0.304785  0.450709  0  .  1
   S  S21  1  0.333329  0.666654  0.217866  0  .  1
   S  S22  1  0.999992  0.999996  0.165784  0  .  1
   S  S23  1  0.999988  -0.000005  0.665700  0  .  1
   S  S24  1  0.333333  0.666677  0.717868  0  .  1
   S  S25  1  0.304738  0.304747  0.950722  0  .  1
   S  S26  1  0.304792  0.000001  0.450703  0  .  1
   S  S27  1  0.695206  0.695212  0.450703  0  .  1
   S  S28  1  0.666673  0.333336  0.717869  0  .  1
   S  S29  1  0.666650  0.333312  0.217876  0  .  1
   S  S30  1  0.695252  0.999989  0.950725  0  .  1
 
