#\#CIF1.1
##########################################################################
#               Crystallographic Information Format file 
#               Produced by PyCifRW module
# 
#  This is a CIF file.  CIF has been adopted by the International
#  Union of Crystallography as the standard for data archiving and 
#  transmission.
#
#  For information on this file format, follow the CIF links at
#  http://www.iucr.org
##########################################################################

data_Li8Mn5O10
_symmetry_space_group_name_H-M          'P 1'
_cell_length_a                          5.22711160283
_cell_length_b                          5.49187341078
_cell_length_c                          8.41616108561
_cell_angle_alpha                       105.575744168
_cell_angle_beta                        92.7371652493
_cell_angle_gamma                       91.7212441724
_chemical_name_systematic               'Generated by pymatgen'
_symmetry_Int_Tables_number             1
_chemical_formula_structural            Li8Mn5O10
_chemical_formula_sum                   'Li8 Mn5 O10'
_cell_volume                            232.230983673
_cell_formula_units_Z                   1
loop_
  _symmetry_equiv_pos_site_id
  _symmetry_equiv_pos_as_xyz
   1  'x, y, z'
 
loop_
  _atom_site_type_symbol
  _atom_site_label
  _atom_site_symmetry_multiplicity
  _atom_site_fract_x
  _atom_site_fract_y
  _atom_site_fract_z
  _atom_site_attached_hydrogens
  _atom_site_B_iso_or_equiv
  _atom_site_occupancy
   Li  Li1  1  0.621328  0.358155  0.009286  0  .  1
   Li  Li2  1  0.593520  0.896885  0.190913  0  .  1
   Li  Li3  1  0.377063  0.254167  0.203498  0  .  1
   Li  Li4  1  0.613403  0.557393  0.400116  0  .  1
   Li  Li5  1  0.361667  0.478921  0.602823  0  .  1
   Li  Li6  1  0.585301  0.117159  0.562867  0  .  1
   Li  Li7  1  0.598486  0.726974  0.820756  0  .  1
   Li  Li8  1  0.370616  0.068389  0.799841  0  .  1
   Mn  Mn9  1  0.006047  0.987172  0.996494  0  .  1
   Mn  Mn10  1  0.038696  0.605173  0.200144  0  .  1
   Mn  Mn11  1  0.987611  0.800741  0.601333  0  .  1
   Mn  Mn12  1  0.997910  0.406505  0.800724  0  .  1
   Mn  Mn13  1  -0.000786  0.189513  0.394182  0  .  1
   O  O14  1  0.789133  0.684886  0.007937  0  .  1
   O  O15  1  0.227219  0.289499  0.996139  0  .  1
   O  O16  1  0.218172  0.943457  0.184616  0  .  1
   O  O17  1  0.752368  0.274909  0.221955  0  .  1
   O  O18  1  0.780514  0.889411  0.400169  0  .  1
   O  O19  1  0.226529  0.482859  0.389910  0  .  1
   O  O20  1  0.730150  0.480625  0.609284  0  .  1
   O  O21  1  0.211483  0.148556  0.594604  0  .  1
   O  O22  1  0.233001  0.733484  0.784525  0  .  1
   O  O23  1  0.753655  0.071521  0.827277  0  .  1
 
