#\#CIF1.1
##########################################################################
#               Crystallographic Information Format file 
#               Produced by PyCifRW module
# 
#  This is a CIF file.  CIF has been adopted by the International
#  Union of Crystallography as the standard for data archiving and 
#  transmission.
#
#  For information on this file format, follow the CIF links at
#  http://www.iucr.org
##########################################################################

data_Li8Mn2O9
_symmetry_space_group_name_H-M          'P 1'
_cell_length_a                          14.8834689918
_cell_length_b                          8.70135360969
_cell_length_c                          5.74174400379
_cell_angle_alpha                       70.3765665225
_cell_angle_beta                        79.1979522053
_cell_angle_gamma                       85.7658400312
_chemical_name_systematic               'Generated by pymatgen'
_symmetry_Int_Tables_number             1
_chemical_formula_structural            Li8Mn2O9
_chemical_formula_sum                   'Li32 Mn8 O36'
_cell_volume                            687.946023134
_cell_formula_units_Z                   4
loop_
  _symmetry_equiv_pos_site_id
  _symmetry_equiv_pos_as_xyz
   1  'x, y, z'
 
loop_
  _atom_site_type_symbol
  _atom_site_label
  _atom_site_symmetry_multiplicity
  _atom_site_fract_x
  _atom_site_fract_y
  _atom_site_fract_z
  _atom_site_attached_hydrogens
  _atom_site_B_iso_or_equiv
  _atom_site_occupancy
   Li  Li1  1  0.031207  0.122120  0.780472  0  .  1
   Li  Li2  1  0.048946  0.622893  0.548738  0  .  1
   Li  Li3  1  0.040476  0.628244  0.043403  0  .  1
   Li  Li4  1  0.040283  0.126704  0.309900  0  .  1
   Li  Li5  1  0.153036  0.408058  0.850088  0  .  1
   Li  Li6  1  0.151697  0.845851  0.128788  0  .  1
   Li  Li7  1  0.241050  0.625848  0.966496  0  .  1
   Li  Li8  1  0.243593  0.625576  0.425776  0  .  1
   Li  Li9  1  0.258674  0.123305  0.668596  0  .  1
   Li  Li10  1  0.258922  0.122639  0.207246  0  .  1
   Li  Li11  1  0.343833  0.341884  0.784234  0  .  1
   Li  Li12  1  0.352162  0.903268  0.499595  0  .  1
   Li  Li13  1  0.458523  0.628812  0.854054  0  .  1
   Li  Li14  1  0.457836  0.127527  0.585038  0  .  1
   Li  Li15  1  0.470253  0.622788  0.313164  0  .  1
   Li  Li16  1  0.547039  0.877959  0.913599  0  .  1
   Li  Li17  1  0.452961  0.122041  0.086401  0  .  1
   Li  Li18  1  0.529747  0.377212  0.686836  0  .  1
   Li  Li19  1  0.542164  0.872473  0.414962  0  .  1
   Li  Li20  1  0.541477  0.371188  0.145946  0  .  1
   Li  Li21  1  0.647838  0.096732  0.500405  0  .  1
   Li  Li22  1  0.656167  0.658116  0.215766  0  .  1
   Li  Li23  1  0.741078  0.877361  0.792754  0  .  1
   Li  Li24  1  0.741326  0.876695  0.331404  0  .  1
   Li  Li25  1  0.756407  0.374424  0.574224  0  .  1
   Li  Li26  1  0.758950  0.374152  0.033504  0  .  1
   Li  Li27  1  0.848303  0.154149  0.871212  0  .  1
   Li  Li28  1  0.846964  0.591942  0.149912  0  .  1
   Li  Li29  1  0.959717  0.873296  0.690100  0  .  1
   Li  Li30  1  0.959524  0.371756  0.956597  0  .  1
   Li  Li31  1  0.951054  0.377107  0.451262  0  .  1
   Li  Li32  1  0.968793  0.877880  0.219528  0  .  1
   Mn  Mn33  1  0.151323  0.878610  0.617580  0  .  1
   Mn  Mn34  1  0.144490  0.370014  0.370864  0  .  1
   Mn  Mn35  1  0.351021  0.871624  0.018585  0  .  1
   Mn  Mn36  1  0.352495  0.379701  0.264562  0  .  1
   Mn  Mn37  1  0.647505  0.620299  0.735438  0  .  1
   Mn  Mn38  1  0.648979  0.128376  0.981415  0  .  1
   Mn  Mn39  1  0.855510  0.629986  0.629136  0  .  1
   Mn  Mn40  1  0.848677  0.121390  0.382420  0  .  1
   O  O41  1  0.060580  0.883349  0.891206  0  .  1
   O  O42  1  0.065576  0.883776  0.414592  0  .  1
   O  O43  1  0.061718  0.358797  0.660440  0  .  1
   O  O44  1  0.060229  0.366602  0.171597  0  .  1
   O  O45  1  0.154958  0.648955  0.728195  0  .  1
   O  O46  1  0.141859  0.598890  0.258871  0  .  1
   O  O47  1  0.154026  0.122284  0.487338  0  .  1
   O  O48  1  0.250069  0.875769  0.817788  0  .  1
   O  O49  1  0.252494  0.873129  0.318949  0  .  1
   O  O50  1  0.249748  0.374492  0.547268  0  .  1
   O  O51  1  0.248314  0.374053  0.090051  0  .  1
   O  O52  1  0.345896  0.100515  0.907202  0  .  1
   O  O53  1  0.345818  0.627345  0.141117  0  .  1
   O  O54  1  0.357824  0.150861  0.375369  0  .  1
   O  O55  1  0.438215  0.869080  0.738394  0  .  1
   O  O56  1  0.433967  0.389425  0.970388  0  .  1
   O  O57  1  0.440305  0.862921  0.212050  0  .  1
   O  O58  1  0.440307  0.385992  0.454502  0  .  1
   O  O59  1  0.559693  0.614008  0.545498  0  .  1
   O  O60  1  0.559695  0.137079  0.787950  0  .  1
   O  O61  1  0.566033  0.610575  0.029612  0  .  1
   O  O62  1  0.561785  0.130920  0.261606  0  .  1
   O  O63  1  0.642176  0.849139  0.624631  0  .  1
   O  O64  1  0.654182  0.372655  0.858883  0  .  1
   O  O65  1  0.654104  0.899485  0.092798  0  .  1
   O  O66  1  0.751686  0.625947  0.909949  0  .  1
   O  O67  1  0.750252  0.625508  0.452732  0  .  1
   O  O68  1  0.747506  0.126871  0.681051  0  .  1
   O  O69  1  0.749931  0.124231  0.182212  0  .  1
   O  O70  1  0.845974  0.877716  0.512662  0  .  1
   O  O71  1  0.858141  0.401110  0.741129  0  .  1
   O  O72  1  0.845042  0.351045  0.271805  0  .  1
   O  O73  1  0.939771  0.633398  0.828403  0  .  1
   O  O74  1  0.938282  0.641203  0.339560  0  .  1
   O  O75  1  0.934424  0.116224  0.585408  0  .  1
   O  O76  1  0.939420  0.116651  0.108794  0  .  1
 
