#\#CIF1.1
##########################################################################
#               Crystallographic Information Format file 
#               Produced by PyCifRW module
# 
#  This is a CIF file.  CIF has been adopted by the International
#  Union of Crystallography as the standard for data archiving and 
#  transmission.
#
#  For information on this file format, follow the CIF links at
#  http://www.iucr.org
##########################################################################

data_Li8Ti2O7
_symmetry_space_group_name_H-M          'P 1'
_cell_length_a                          7.74287925742
_cell_length_b                          10.24250228
_cell_length_c                          9.43577017117
_cell_angle_alpha                       90.0
_cell_angle_beta                        109.174603065
_cell_angle_gamma                       90.0
_chemical_name_systematic               'Generated by pymatgen'
_symmetry_Int_Tables_number             1
_chemical_formula_structural            Li8Ti2O7
_chemical_formula_sum                   'Li32 Ti8 O28'
_cell_volume                            706.802394018
_cell_formula_units_Z                   4
loop_
  _symmetry_equiv_pos_site_id
  _symmetry_equiv_pos_as_xyz
   1  'x, y, z'
 
loop_
  _atom_site_type_symbol
  _atom_site_label
  _atom_site_symmetry_multiplicity
  _atom_site_fract_x
  _atom_site_fract_y
  _atom_site_fract_z
  _atom_site_attached_hydrogens
  _atom_site_B_iso_or_equiv
  _atom_site_occupancy
   Li  Li1  1  0.146618  0.460240  0.928596  0  .  1
   Li  Li2  1  0.077420  0.457127  0.640799  0  .  1
   Li  Li3  1  0.081165  0.799326  0.524497  0  .  1
   Li  Li4  1  0.146618  0.039760  0.428596  0  .  1
   Li  Li5  1  0.270790  0.954996  0.716500  0  .  1
   Li  Li6  1  0.077420  0.042873  0.140799  0  .  1
   Li  Li7  1  0.305072  0.274594  0.604941  0  .  1
   Li  Li8  1  0.081165  0.700674  0.024497  0  .  1
   Li  Li9  1  0.446536  0.460580  0.848622  0  .  1
   Li  Li10  1  0.358203  0.506649  0.533084  0  .  1
   Li  Li11  1  0.270790  0.545004  0.216500  0  .  1
   Li  Li12  1  0.495665  0.225672  0.887232  0  .  1
   Li  Li13  1  0.305072  0.225406  0.104941  0  .  1
   Li  Li14  1  0.504335  0.725672  0.612768  0  .  1
   Li  Li15  1  0.446536  0.039420  0.348622  0  .  1
   Li  Li16  1  0.641797  0.006649  0.966916  0  .  1
   Li  Li17  1  0.358203  0.993351  0.033084  0  .  1
   Li  Li18  1  0.553464  0.960580  0.651378  0  .  1
   Li  Li19  1  0.495665  0.274328  0.387232  0  .  1
   Li  Li20  1  0.694928  0.774594  0.895059  0  .  1
   Li  Li21  1  0.504335  0.774328  0.112768  0  .  1
   Li  Li22  1  0.729210  0.454996  0.783500  0  .  1
   Li  Li23  1  0.641797  0.493351  0.466916  0  .  1
   Li  Li24  1  0.553464  0.539420  0.151378  0  .  1
   Li  Li25  1  0.918835  0.299326  0.975503  0  .  1
   Li  Li26  1  0.694928  0.725406  0.395059  0  .  1
   Li  Li27  1  0.922580  0.957127  0.859201  0  .  1
   Li  Li28  1  0.729210  0.045004  0.283500  0  .  1
   Li  Li29  1  0.853382  0.960240  0.571404  0  .  1
   Li  Li30  1  0.918835  0.200674  0.475503  0  .  1
   Li  Li31  1  0.922580  0.542873  0.359201  0  .  1
   Li  Li32  1  0.853382  0.539760  0.071404  0  .  1
   Ti  Ti33  1  0.091643  0.193212  0.780421  0  .  1
   Ti  Ti34  1  0.091643  0.306788  0.280421  0  .  1
   Ti  Ti35  1  0.293337  0.709198  0.838003  0  .  1
   Ti  Ti36  1  0.293337  0.790802  0.338003  0  .  1
   Ti  Ti37  1  0.706663  0.209198  0.661997  0  .  1
   Ti  Ti38  1  0.706663  0.290802  0.161997  0  .  1
   Ti  Ti39  1  0.908357  0.693212  0.719579  0  .  1
   Ti  Ti40  1  0.908357  0.806788  0.219579  0  .  1
   O  O41  1  0.124390  0.098130  0.954303  0  .  1
   O  O42  1  0.088893  0.831110  0.725358  0  .  1
   O  O43  1  0.143548  0.115566  0.617452  0  .  1
   O  O44  1  0.124390  0.401870  0.454303  0  .  1
   O  O45  1  0.263603  0.337058  0.801117  0  .  1
   O  O46  1  0.088893  0.668890  0.225358  0  .  1
   O  O47  1  0.143548  0.384434  0.117452  0  .  1
   O  O48  1  0.383249  0.610262  0.718544  0  .  1
   O  O49  1  0.263603  0.162942  0.301117  0  .  1
   O  O50  1  0.448759  0.864743  0.909588  0  .  1
   O  O51  1  0.328804  0.878992  0.523329  0  .  1
   O  O52  1  0.383249  0.889738  0.218544  0  .  1
   O  O53  1  0.448759  0.635257  0.409588  0  .  1
   O  O54  1  0.671196  0.378992  0.976671  0  .  1
   O  O55  1  0.328804  0.621008  0.023329  0  .  1
   O  O56  1  0.551241  0.364743  0.590412  0  .  1
   O  O57  1  0.616751  0.110262  0.781456  0  .  1
   O  O58  1  0.671196  0.121008  0.476671  0  .  1
   O  O59  1  0.551241  0.135257  0.090412  0  .  1
   O  O60  1  0.736397  0.837058  0.698883  0  .  1
   O  O61  1  0.616751  0.389738  0.281456  0  .  1
   O  O62  1  0.856452  0.615566  0.882548  0  .  1
   O  O63  1  0.911107  0.331110  0.774642  0  .  1
   O  O64  1  0.736397  0.662942  0.198883  0  .  1
   O  O65  1  0.875610  0.598130  0.545697  0  .  1
   O  O66  1  0.856452  0.884434  0.382548  0  .  1
   O  O67  1  0.911107  0.168890  0.274642  0  .  1
   O  O68  1  0.875610  0.901870  0.045697  0  .  1
 
