#\#CIF1.1
##########################################################################
#               Crystallographic Information Format file 
#               Produced by PyCifRW module
# 
#  This is a CIF file.  CIF has been adopted by the International
#  Union of Crystallography as the standard for data archiving and 
#  transmission.
#
#  For information on this file format, follow the CIF links at
#  http://www.iucr.org
##########################################################################

data_Li8TiS6
_symmetry_space_group_name_H-M          'P 1'
_cell_length_a                          14.7006464312
_cell_length_b                          7.10012997059
_cell_length_c                          10.26034229
_cell_angle_alpha                       90.0
_cell_angle_beta                        90.0
_cell_angle_gamma                       90.0014688388
_chemical_name_systematic               'Generated by pymatgen'
_symmetry_Int_Tables_number             1
_chemical_formula_structural            Li8TiS6
_chemical_formula_sum                   'Li32 Ti4 S24'
_cell_volume                            1070.93861989
_cell_formula_units_Z                   4
loop_
  _symmetry_equiv_pos_site_id
  _symmetry_equiv_pos_as_xyz
   1  'x, y, z'
 
loop_
  _atom_site_type_symbol
  _atom_site_label
  _atom_site_symmetry_multiplicity
  _atom_site_fract_x
  _atom_site_fract_y
  _atom_site_fract_z
  _atom_site_attached_hydrogens
  _atom_site_B_iso_or_equiv
  _atom_site_occupancy
   Li  Li1  1  0.019892  0.511470  0.781077  0  .  1
   Li  Li2  1  0.059445  0.279451  0.529356  0  .  1
   Li  Li3  1  0.067158  0.898663  0.192597  0  .  1
   Li  Li4  1  0.075547  0.933924  0.832047  0  .  1
   Li  Li5  1  0.115264  0.338766  0.000572  0  .  1
   Li  Li6  1  0.214991  0.542636  0.821426  0  .  1
   Li  Li7  1  0.230892  0.583171  0.185984  0  .  1
   Li  Li8  1  0.243712  0.935942  0.007953  0  .  1
   Li  Li9  1  0.256290  0.435930  0.507948  0  .  1
   Li  Li10  1  0.269106  0.083166  0.685980  0  .  1
   Li  Li11  1  0.285006  0.042638  0.321430  0  .  1
   Li  Li12  1  0.384735  0.838761  0.500571  0  .  1
   Li  Li13  1  0.424440  0.433932  0.332044  0  .  1
   Li  Li14  1  0.432841  0.398638  0.692599  0  .  1
   Li  Li15  1  0.440559  0.779461  0.029380  0  .  1
   Li  Li16  1  0.480097  0.011460  0.281079  0  .  1
   Li  Li17  1  0.519903  0.988540  0.781079  0  .  1
   Li  Li18  1  0.559441  0.220539  0.529380  0  .  1
   Li  Li19  1  0.567159  0.601362  0.192599  0  .  1
   Li  Li20  1  0.575560  0.566068  0.832044  0  .  1
   Li  Li21  1  0.615265  0.161239  0.000571  0  .  1
   Li  Li22  1  0.714994  0.957362  0.821430  0  .  1
   Li  Li23  1  0.730894  0.916834  0.185980  0  .  1
   Li  Li24  1  0.743710  0.564070  0.007948  0  .  1
   Li  Li25  1  0.756288  0.064058  0.507953  0  .  1
   Li  Li26  1  0.769108  0.416829  0.685984  0  .  1
   Li  Li27  1  0.785009  0.457364  0.321426  0  .  1
   Li  Li28  1  0.884736  0.661234  0.500572  0  .  1
   Li  Li29  1  0.924453  0.066076  0.332047  0  .  1
   Li  Li30  1  0.932842  0.101337  0.692597  0  .  1
   Li  Li31  1  0.940555  0.720549  0.029356  0  .  1
   Li  Li32  1  0.980108  0.488530  0.281077  0  .  1
   Ti  Ti33  1  0.124435  0.771832  0.512964  0  .  1
   Ti  Ti34  1  0.375568  0.271854  0.012956  0  .  1
   Ti  Ti35  1  0.624432  0.728146  0.512956  0  .  1
   Ti  Ti36  1  0.875565  0.228168  0.012964  0  .  1
   S  S37  1  0.000831  0.782148  0.644150  0  .  1
   S  S38  1  0.125762  0.518814  0.377588  0  .  1
   S  S39  1  0.118926  0.709658  0.004054  0  .  1
   S  S40  1  0.122819  0.252393  0.759747  0  .  1
   S  S41  1  0.126588  0.033499  0.392716  0  .  1
   S  S42  1  0.253312  0.738988  0.632453  0  .  1
   S  S43  1  0.246696  0.238998  0.132449  0  .  1
   S  S44  1  0.373419  0.533478  0.892733  0  .  1
   S  S45  1  0.377174  0.752383  0.259752  0  .  1
   S  S46  1  0.381073  0.209656  0.504055  0  .  1
   S  S47  1  0.374249  0.018799  0.877585  0  .  1
   S  S48  1  0.499170  0.282152  0.144152  0  .  1
   S  S49  1  0.500830  0.717848  0.644152  0  .  1
   S  S50  1  0.625751  0.981201  0.377585  0  .  1
   S  S51  1  0.618927  0.790344  0.004055  0  .  1
   S  S52  1  0.622826  0.247617  0.759752  0  .  1
   S  S53  1  0.626581  0.466522  0.392733  0  .  1
   S  S54  1  0.753304  0.761002  0.632449  0  .  1
   S  S55  1  0.746688  0.261012  0.132453  0  .  1
   S  S56  1  0.873412  0.966501  0.892716  0  .  1
   S  S57  1  0.877181  0.747607  0.259747  0  .  1
   S  S58  1  0.881074  0.290342  0.504054  0  .  1
   S  S59  1  0.874238  0.481186  0.877588  0  .  1
   S  S60  1  0.999169  0.217852  0.144150  0  .  1
 
