#\#CIF1.1
##########################################################################
#               Crystallographic Information Format file 
#               Produced by PyCifRW module
# 
#  This is a CIF file.  CIF has been adopted by the International
#  Union of Crystallography as the standard for data archiving and 
#  transmission.
#
#  For information on this file format, follow the CIF links at
#  http://www.iucr.org
##########################################################################

data_Li8Ti15O32
_symmetry_space_group_name_H-M          'P 1'
_cell_length_a                          5.97843094208
_cell_length_b                          5.97843094208
_cell_length_c                          19.8196028059
_cell_angle_alpha                       98.6745169256
_cell_angle_beta                        90.0
_cell_angle_gamma                       120.0
_chemical_name_systematic               'Generated by pymatgen'
_symmetry_Int_Tables_number             1
_chemical_formula_structural            Li8Ti15O32
_chemical_formula_sum                   'Li8 Ti15 O32'
_cell_volume                            604.104589123
_cell_formula_units_Z                   1
loop_
  _symmetry_equiv_pos_site_id
  _symmetry_equiv_pos_as_xyz
   1  'x, y, z'
 
loop_
  _atom_site_type_symbol
  _atom_site_label
  _atom_site_symmetry_multiplicity
  _atom_site_fract_x
  _atom_site_fract_y
  _atom_site_fract_z
  _atom_site_attached_hydrogens
  _atom_site_B_iso_or_equiv
  _atom_site_occupancy
   Li  Li1  1  0.437857  0.875714  0.313572  0  .  1
   Li  Li2  1  0.687197  0.374395  0.061591  0  .  1
   Li  Li3  1  0.749987  0.499974  0.249961  0  .  1
   Li  Li4  1  0.188038  0.376077  0.564116  0  .  1
   Li  Li5  1  0.843807  0.687614  0.531421  0  .  1
   Li  Li6  1  0.249523  0.499048  0.748571  0  .  1
   Li  Li7  1  0.499527  0.999055  0.498583  0  .  1
   Li  Li8  1  0.937977  0.875955  0.813932  0  .  1
   Ti  Ti9  1  0.217875  0.937825  0.155700  0  .  1
   Ti  Ti10  1  0.343098  0.686197  0.029295  0  .  1
   Ti  Ti11  1  0.719951  0.937825  0.155700  0  .  1
   Ti  Ti12  1  0.217875  0.435749  0.155700  0  .  1
   Ti  Ti13  1  0.094390  0.188780  0.283170  0  .  1
   Ti  Ti14  1  0.966429  0.932858  0.409569  0  .  1
   Ti  Ti15  1  0.476710  0.443139  0.409569  0  .  1
   Ti  Ti16  1  0.211001  0.932059  0.653117  0  .  1
   Ti  Ti17  1  0.721058  0.932059  0.653117  0  .  1
   Ti  Ti18  1  0.966429  0.443139  0.409569  0  .  1
   Ti  Ti19  1  0.721058  0.442115  0.653117  0  .  1
   Ti  Ti20  1  0.467909  0.935818  0.906971  0  .  1
   Ti  Ti21  1  0.467909  0.439062  0.906971  0  .  1
   Ti  Ti22  1  0.593347  0.186695  0.780042  0  .  1
   Ti  Ti23  1  0.971153  0.439062  0.906971  0  .  1
   O  O24  1  0.066168  0.581753  0.097337  0  .  1
   O  O25  1  0.515585  0.581753  0.097337  0  .  1
   O  O26  1  0.403155  0.806309  0.209464  0  .  1
   O  O27  1  0.035419  0.070836  0.106255  0  .  1
   O  O28  1  0.922105  0.844210  0.216290  0  .  1
   O  O29  1  0.130095  0.794991  0.459888  0  .  1
   O  O30  1  0.372080  0.294185  0.216290  0  .  1
   O  O31  1  0.263386  0.526770  0.346625  0  .  1
   O  O32  1  0.515585  0.031171  0.097337  0  .  1
   O  O33  1  0.022583  0.580139  0.602724  0  .  1
   O  O34  1  0.153435  0.306871  0.460307  0  .  1
   O  O35  1  0.263386  0.083241  0.346625  0  .  1
   O  O36  1  0.784325  0.568650  0.352975  0  .  1
   O  O37  1  0.922105  0.294185  0.216290  0  .  1
   O  O38  1  0.664896  0.794991  0.459888  0  .  1
   O  O39  1  0.424208  0.848416  0.715828  0  .  1
   O  O40  1  0.664896  0.329793  0.459888  0  .  1
   O  O41  1  0.022583  0.045167  0.602724  0  .  1
   O  O42  1  0.819855  0.083241  0.346625  0  .  1
   O  O43  1  0.557556  0.580139  0.602724  0  .  1
   O  O44  1  0.903222  0.806443  0.709664  0  .  1
   O  O45  1  0.424208  0.291619  0.715828  0  .  1
   O  O46  1  0.534072  0.068143  0.602215  0  .  1
   O  O47  1  0.283989  0.567979  0.851967  0  .  1
   O  O48  1  0.175034  0.789243  0.964277  0  .  1
   O  O49  1  0.614208  0.789243  0.964277  0  .  1
   O  O50  1  0.867412  0.291619  0.715828  0  .  1
   O  O51  1  0.175034  0.350067  0.964277  0  .  1
   O  O52  1  0.317230  0.081784  0.846338  0  .  1
   O  O53  1  0.764554  0.529109  0.846338  0  .  1
   O  O54  1  0.764554  0.081784  0.846338  0  .  1
   O  O55  1  0.652970  0.305942  0.958912  0  .  1
 
