#\#CIF1.1
##########################################################################
#               Crystallographic Information Format file 
#               Produced by PyCifRW module
# 
#  This is a CIF file.  CIF has been adopted by the International
#  Union of Crystallography as the standard for data archiving and 
#  transmission.
#
#  For information on this file format, follow the CIF links at
#  http://www.iucr.org
##########################################################################

data_Li9Co15O28
_symmetry_space_group_name_H-M          'P 1'
_cell_length_a                          8.25661108144
_cell_length_b                          8.67027759918
_cell_length_c                          7.84697979768
_cell_angle_alpha                       104.246737
_cell_angle_beta                        75.6887700588
_cell_angle_gamma                       74.6530427316
_chemical_name_systematic               'Generated by pymatgen'
_symmetry_Int_Tables_number             1
_chemical_formula_structural            Li9Co15O28
_chemical_formula_sum                   'Li9 Co15 O28'
_cell_volume                            494.871390136
_cell_formula_units_Z                   1
loop_
  _symmetry_equiv_pos_site_id
  _symmetry_equiv_pos_as_xyz
   1  'x, y, z'
 
loop_
  _atom_site_type_symbol
  _atom_site_label
  _atom_site_symmetry_multiplicity
  _atom_site_fract_x
  _atom_site_fract_y
  _atom_site_fract_z
  _atom_site_attached_hydrogens
  _atom_site_B_iso_or_equiv
  _atom_site_occupancy
   Li  Li1  1  0.000000  0.500000  0.500000  0  .  1
   Li  Li2  1  0.144112  0.643931  0.784173  0  .  1
   Li  Li3  1  0.286007  0.285837  0.565008  0  .  1
   Li  Li4  1  0.584051  0.072867  0.658143  0  .  1
   Li  Li5  1  0.432242  0.431693  0.865118  0  .  1
   Li  Li6  1  0.567758  0.568307  0.134882  0  .  1
   Li  Li7  1  0.415949  0.927133  0.341857  0  .  1
   Li  Li8  1  0.713993  0.714163  0.434992  0  .  1
   Li  Li9  1  0.855888  0.356069  0.215827  0  .  1
   Co  Co10  1  0.000000  0.000000  0.000000  0  .  1
   Co  Co11  1  0.065795  0.078469  0.642316  0  .  1
   Co  Co12  1  0.074079  0.567476  0.133951  0  .  1
   Co  Co13  1  0.216336  0.214890  0.926681  0  .  1
   Co  Co14  1  0.500000  0.000000  0.000000  0  .  1
   Co  Co15  1  0.358369  0.354051  0.210929  0  .  1
   Co  Co16  1  0.216413  0.707770  0.425400  0  .  1
   Co  Co17  1  0.638600  0.144306  0.287951  0  .  1
   Co  Co18  1  0.500000  0.500000  0.500000  0  .  1
   Co  Co19  1  0.361400  0.855694  0.712049  0  .  1
   Co  Co20  1  0.783587  0.292230  0.574600  0  .  1
   Co  Co21  1  0.641631  0.645949  0.789071  0  .  1
   Co  Co22  1  0.783664  0.785110  0.073319  0  .  1
   Co  Co23  1  0.925921  0.432524  0.866049  0  .  1
   Co  Co24  1  0.934205  0.921531  0.357684  0  .  1
   O  O25  1  0.023193  0.297382  0.606981  0  .  1
   O  O26  1  0.013895  0.776236  0.072519  0  .  1
   O  O27  1  0.124448  0.358144  0.182550  0  .  1
   O  O28  1  0.259583  0.004548  0.971474  0  .  1
   O  O29  1  0.161742  0.424895  0.875771  0  .  1
   O  O30  1  0.312352  0.078220  0.667741  0  .  1
   O  O31  1  0.169450  0.918721  0.381426  0  .  1
   O  O32  1  0.308216  0.553346  0.150196  0  .  1
   O  O33  1  0.127288  0.869449  0.715214  0  .  1
   O  O34  1  0.258540  0.510150  0.501023  0  .  1
   O  O35  1  0.411970  0.151946  0.275081  0  .  1
   O  O36  1  0.446327  0.203664  0.928836  0  .  1
   O  O37  1  0.584289  0.365352  0.243747  0  .  1
   O  O38  1  0.458040  0.711716  0.447911  0  .  1
   O  O39  1  0.541960  0.288284  0.552089  0  .  1
   O  O40  1  0.415711  0.634648  0.756253  0  .  1
   O  O41  1  0.553673  0.796336  0.071164  0  .  1
   O  O42  1  0.588030  0.848054  0.724919  0  .  1
   O  O43  1  0.741460  0.489850  0.498977  0  .  1
   O  O44  1  0.872712  0.130551  0.284786  0  .  1
   O  O45  1  0.691784  0.446654  0.849804  0  .  1
   O  O46  1  0.830550  0.081279  0.618574  0  .  1
   O  O47  1  0.687648  0.921780  0.332259  0  .  1
   O  O48  1  0.838258  0.575105  0.124229  0  .  1
   O  O49  1  0.740417  0.995452  0.028526  0  .  1
   O  O50  1  0.875552  0.641856  0.817450  0  .  1
   O  O51  1  0.986105  0.223764  0.927481  0  .  1
   O  O52  1  0.976807  0.702618  0.393019  0  .  1
 
