#\#CIF1.1
##########################################################################
#               Crystallographic Information Format file 
#               Produced by PyCifRW module
# 
#  This is a CIF file.  CIF has been adopted by the International
#  Union of Crystallography as the standard for data archiving and 
#  transmission.
#
#  For information on this file format, follow the CIF links at
#  http://www.iucr.org
##########################################################################

data_Li9Fe23O32
_symmetry_space_group_name_H-M          'P 1'
_cell_length_a                          8.55486877558
_cell_length_b                          8.59395612426
_cell_length_c                          8.59395612426
_cell_angle_alpha                       90.0420089853
_cell_angle_beta                        89.9539730082
_cell_angle_gamma                       89.9539730082
_chemical_name_systematic               'Generated by pymatgen'
_symmetry_Int_Tables_number             1
_chemical_formula_structural            Li9Fe23O32
_chemical_formula_sum                   'Li9 Fe23 O32'
_cell_volume                            631.828510777
_cell_formula_units_Z                   1
loop_
  _symmetry_equiv_pos_site_id
  _symmetry_equiv_pos_as_xyz
   1  'x, y, z'
 
loop_
  _atom_site_type_symbol
  _atom_site_label
  _atom_site_symmetry_multiplicity
  _atom_site_fract_x
  _atom_site_fract_y
  _atom_site_fract_z
  _atom_site_attached_hydrogens
  _atom_site_B_iso_or_equiv
  _atom_site_occupancy
   Li  Li1  1  0.125000  0.628122  0.621878  0  .  1
   Li  Li2  1  0.123429  0.377728  0.377538  0  .  1
   Li  Li3  1  0.125000  0.871612  0.378388  0  .  1
   Li  Li4  1  0.126571  0.872462  0.872272  0  .  1
   Li  Li5  1  0.374398  0.123437  0.870551  0  .  1
   Li  Li6  1  0.622482  0.124673  0.627488  0  .  1
   Li  Li7  1  0.627518  0.622512  0.125327  0  .  1
   Li  Li8  1  0.625000  0.625641  0.624359  0  .  1
   Li  Li9  1  0.875602  0.379449  0.126563  0  .  1
   Fe  Fe10  1  0.125000  0.123194  0.126806  0  .  1
   Fe  Fe11  1  0.126600  0.120777  0.622310  0  .  1
   Fe  Fe12  1  0.123400  0.627690  0.129223  0  .  1
   Fe  Fe13  1  0.125000  0.377427  0.872573  0  .  1
   Fe  Fe14  1  0.372530  0.128035  0.379452  0  .  1
   Fe  Fe15  1  0.373367  0.378813  0.126324  0  .  1
   Fe  Fe16  1  0.363567  0.621025  0.376049  0  .  1
   Fe  Fe17  1  0.372209  0.627765  0.871652  0  .  1
   Fe  Fe18  1  0.374413  0.372017  0.627904  0  .  1
   Fe  Fe19  1  0.371032  0.875520  0.115470  0  .  1
   Fe  Fe20  1  0.366261  0.877317  0.632810  0  .  1
   Fe  Fe21  1  0.625000  0.126618  0.123382  0  .  1
   Fe  Fe22  1  0.625843  0.381542  0.379188  0  .  1
   Fe  Fe23  1  0.625000  0.379844  0.870156  0  .  1
   Fe  Fe24  1  0.625000  0.867621  0.382379  0  .  1
   Fe  Fe25  1  0.624157  0.870812  0.868458  0  .  1
   Fe  Fe26  1  0.878968  0.134530  0.374480  0  .  1
   Fe  Fe27  1  0.877791  0.378348  0.622235  0  .  1
   Fe  Fe28  1  0.883739  0.617190  0.372683  0  .  1
   Fe  Fe29  1  0.875587  0.622096  0.877983  0  .  1
   Fe  Fe30  1  0.876633  0.123676  0.871187  0  .  1
   Fe  Fe31  1  0.877470  0.870548  0.121965  0  .  1
   Fe  Fe32  1  0.886433  0.873951  0.628975  0  .  1
   O  O33  1  0.128358  0.366545  0.113193  0  .  1
   O  O34  1  0.119429  0.371874  0.638639  0  .  1
   O  O35  1  0.119483  0.884134  0.123562  0  .  1
   O  O36  1  0.127607  0.874410  0.625235  0  .  1
   O  O37  1  0.130517  0.126438  0.365866  0  .  1
   O  O38  1  0.121642  0.136807  0.883455  0  .  1
   O  O39  1  0.122393  0.624765  0.375590  0  .  1
   O  O40  1  0.130571  0.611361  0.878126  0  .  1
   O  O41  1  0.375074  0.123177  0.123635  0  .  1
   O  O42  1  0.375472  0.387347  0.378186  0  .  1
   O  O43  1  0.379800  0.372443  0.873687  0  .  1
   O  O44  1  0.383656  0.865088  0.379103  0  .  1
   O  O45  1  0.374739  0.878122  0.868452  0  .  1
   O  O46  1  0.377047  0.117715  0.626642  0  .  1
   O  O47  1  0.376110  0.628476  0.139012  0  .  1
   O  O48  1  0.374204  0.632135  0.612490  0  .  1
   O  O49  1  0.620370  0.115865  0.364420  0  .  1
   O  O50  1  0.621954  0.363886  0.119794  0  .  1
   O  O51  1  0.631311  0.373893  0.631185  0  .  1
   O  O52  1  0.628818  0.633813  0.373683  0  .  1
   O  O53  1  0.628046  0.130206  0.886114  0  .  1
   O  O54  1  0.618689  0.618815  0.876107  0  .  1
   O  O55  1  0.629630  0.885580  0.134135  0  .  1
   O  O56  1  0.621182  0.876317  0.616187  0  .  1
   O  O57  1  0.874926  0.126365  0.126823  0  .  1
   O  O58  1  0.873890  0.110988  0.621524  0  .  1
   O  O59  1  0.875261  0.381548  0.371878  0  .  1
   O  O60  1  0.872953  0.623358  0.132285  0  .  1
   O  O61  1  0.875796  0.637510  0.617865  0  .  1
   O  O62  1  0.870200  0.376313  0.877557  0  .  1
   O  O63  1  0.866344  0.870897  0.384912  0  .  1
   O  O64  1  0.874528  0.871814  0.862653  0  .  1
 
