#\#CIF1.1
##########################################################################
#               Crystallographic Information Format file 
#               Produced by PyCifRW module
# 
#  This is a CIF file.  CIF has been adopted by the International
#  Union of Crystallography as the standard for data archiving and 
#  transmission.
#
#  For information on this file format, follow the CIF links at
#  http://www.iucr.org
##########################################################################

data_Li9Fe5O12
_symmetry_space_group_name_H-M          'P 1'
_cell_length_a                          5.30325253664
_cell_length_b                          5.30290171486
_cell_length_c                          10.1380481491
_cell_angle_alpha                       91.3190864599
_cell_angle_beta                        88.7168384504
_cell_angle_gamma                       58.6454891252
_chemical_name_systematic               'Generated by pymatgen'
_symmetry_Int_Tables_number             1
_chemical_formula_structural            Li9Fe5O12
_chemical_formula_sum                   'Li9 Fe5 O12'
_cell_volume                            243.210614609
_cell_formula_units_Z                   1
loop_
  _symmetry_equiv_pos_site_id
  _symmetry_equiv_pos_as_xyz
   1  'x, y, z'
 
loop_
  _atom_site_type_symbol
  _atom_site_label
  _atom_site_symmetry_multiplicity
  _atom_site_fract_x
  _atom_site_fract_y
  _atom_site_fract_z
  _atom_site_attached_hydrogens
  _atom_site_B_iso_or_equiv
  _atom_site_occupancy
   Li  Li1  1  0.206685  0.794192  0.731152  0  .  1
   Li  Li2  1  0.271748  0.727829  0.195851  0  .  1
   Li  Li3  1  0.187687  0.333864  0.243578  0  .  1
   Li  Li4  1  0.665520  0.813316  0.243493  0  .  1
   Li  Li5  1  0.001068  0.999776  0.999540  0  .  1
   Li  Li6  1  0.333609  0.187985  0.756459  0  .  1
   Li  Li7  1  0.813608  0.665517  0.756493  0  .  1
   Li  Li8  1  0.727234  0.272137  0.803927  0  .  1
   Li  Li9  1  0.793989  0.206418  0.269099  0  .  1
   Fe  Fe10  1  0.835191  0.834704  0.500057  0  .  1
   Fe  Fe11  1  0.499774  0.500138  0.499974  0  .  1
   Fe  Fe12  1  0.165123  0.165612  0.499971  0  .  1
   Fe  Fe13  1  0.334445  0.333660  0.000094  0  .  1
   Fe  Fe14  1  0.666321  0.665574  0.000028  0  .  1
   O  O15  1  0.169093  0.829943  0.392089  0  .  1
   O  O16  1  0.655892  0.991768  0.881282  0  .  1
   O  O17  1  0.009207  0.342589  0.881320  0  .  1
   O  O18  1  0.488669  0.842862  0.608604  0  .  1
   O  O19  1  0.156497  0.513038  0.608885  0  .  1
   O  O20  1  0.380185  0.618672  0.884096  0  .  1
   O  O21  1  0.618770  0.380401  0.116172  0  .  1
   O  O22  1  0.842580  0.488904  0.391492  0  .  1
   O  O23  1  0.512633  0.156602  0.391240  0  .  1
   O  O24  1  0.991828  0.655693  0.118648  0  .  1
   O  O25  1  0.342983  0.009238  0.118584  0  .  1
   O  O26  1  0.829635  0.169589  0.607873  0  .  1
 
