#\#CIF1.1
##########################################################################
#               Crystallographic Information Format file 
#               Produced by PyCifRW module
# 
#  This is a CIF file.  CIF has been adopted by the International
#  Union of Crystallography as the standard for data archiving and 
#  transmission.
#
#  For information on this file format, follow the CIF links at
#  http://www.iucr.org
##########################################################################

data_Li9Mn10O20
_symmetry_space_group_name_H-M          'P 1'
_cell_length_a                          5.13076115514
_cell_length_b                          8.21172404178
_cell_length_c                          10.5846435789
_cell_angle_alpha                       112.501095644
_cell_angle_beta                        101.21513106
_cell_angle_gamma                       68.8235698866
_chemical_name_systematic               'Generated by pymatgen'
_symmetry_Int_Tables_number             1
_chemical_formula_structural            Li9Mn10O20
_chemical_formula_sum                   'Li9 Mn10 O20'
_cell_volume                            383.365206057
_cell_formula_units_Z                   1
loop_
  _symmetry_equiv_pos_site_id
  _symmetry_equiv_pos_as_xyz
   1  'x, y, z'
 
loop_
  _atom_site_type_symbol
  _atom_site_label
  _atom_site_symmetry_multiplicity
  _atom_site_fract_x
  _atom_site_fract_y
  _atom_site_fract_z
  _atom_site_attached_hydrogens
  _atom_site_B_iso_or_equiv
  _atom_site_occupancy
   Li  Li1  1  0.221873  0.559522  0.751087  0  .  1
   Li  Li2  1  0.204638  0.582656  0.257523  0  .  1
   Li  Li3  1  0.391617  0.231787  0.260093  0  .  1
   Li  Li4  1  0.507265  0.492183  0.988692  0  .  1
   Li  Li5  1  0.497525  0.497196  0.504325  0  .  1
   Li  Li6  1  0.604220  0.767877  0.740525  0  .  1
   Li  Li7  1  0.819358  0.397223  0.746534  0  .  1
   Li  Li8  1  0.792625  0.420627  0.249841  0  .  1
   Li  Li9  1  0.615270  0.776540  0.244158  0  .  1
   Mn  Mn10  1  0.989022  0.001948  0.748420  0  .  1
   Mn  Mn11  1  0.999162  0.006909  0.250010  0  .  1
   Mn  Mn12  1  0.102628  0.310702  0.499665  0  .  1
   Mn  Mn13  1  0.107451  0.312832  0.999120  0  .  1
   Mn  Mn14  1  0.693510  0.112566  0.997827  0  .  1
   Mn  Mn15  1  0.304623  0.892971  0.500750  0  .  1
   Mn  Mn16  1  0.687651  0.105861  0.499199  0  .  1
   Mn  Mn17  1  0.305582  0.898766  0.002976  0  .  1
   Mn  Mn18  1  0.895543  0.691366  0.002579  0  .  1
   Mn  Mn19  1  0.897380  0.685518  0.501753  0  .  1
   O  O20  1  0.027312  0.119494  0.622350  0  .  1
   O  O21  1  0.044300  0.128195  0.125218  0  .  1
   O  O22  1  0.129344  0.475671  0.888733  0  .  1
   O  O23  1  0.351161  0.047523  0.903926  0  .  1
   O  O24  1  0.136929  0.468603  0.381138  0  .  1
   O  O25  1  0.351057  0.069526  0.383587  0  .  1
   O  O26  1  0.210855  0.763344  0.626038  0  .  1
   O  O27  1  0.447738  0.337632  0.606560  0  .  1
   O  O28  1  0.223797  0.778673  0.114055  0  .  1
   O  O29  1  0.450046  0.334566  0.114763  0  .  1
   O  O30  1  0.542233  0.674901  0.887595  0  .  1
   O  O31  1  0.796787  0.243375  0.880518  0  .  1
   O  O32  1  0.551715  0.670813  0.380804  0  .  1
   O  O33  1  0.783063  0.240331  0.372537  0  .  1
   O  O34  1  0.646445  0.921195  0.612517  0  .  1
   O  O35  1  0.863596  0.529957  0.618773  0  .  1
   O  O36  1  0.644470  0.932323  0.118132  0  .  1
   O  O37  1  0.867312  0.538596  0.118508  0  .  1
   O  O38  1  0.952863  0.884119  0.880001  0  .  1
   O  O39  1  0.960428  0.878377  0.371508  0  .  1
 
