#\#CIF1.1
##########################################################################
#               Crystallographic Information Format file 
#               Produced by PyCifRW module
# 
#  This is a CIF file.  CIF has been adopted by the International
#  Union of Crystallography as the standard for data archiving and 
#  transmission.
#
#  For information on this file format, follow the CIF links at
#  http://www.iucr.org
##########################################################################

data_Li9Mn15O32
_symmetry_space_group_name_H-M          'P 1'
_cell_length_a                          5.87102233399
_cell_length_b                          23.6319716556
_cell_length_c                          10.2848522372
_cell_angle_alpha                       29.9348645659
_cell_angle_beta                        55.1253051429
_cell_angle_gamma                       60.5742627143
_chemical_name_systematic               'Generated by pymatgen'
_symmetry_Int_Tables_number             1
_chemical_formula_structural            Li9Mn15O32
_chemical_formula_sum                   'Li9 Mn15 O32'
_cell_volume                            584.158309303
_cell_formula_units_Z                   1
loop_
  _symmetry_equiv_pos_site_id
  _symmetry_equiv_pos_as_xyz
   1  'x, y, z'
 
loop_
  _atom_site_type_symbol
  _atom_site_label
  _atom_site_symmetry_multiplicity
  _atom_site_fract_x
  _atom_site_fract_y
  _atom_site_fract_z
  _atom_site_attached_hydrogens
  _atom_site_B_iso_or_equiv
  _atom_site_occupancy
   Li  Li1  1  0.125634  0.244018  0.142239  0  .  1
   Li  Li2  1  0.136346  0.503382  0.110747  0  .  1
   Li  Li3  1  0.497652  0.127709  0.999203  0  .  1
   Li  Li4  1  0.112213  0.746432  0.130900  0  .  1
   Li  Li5  1  0.885741  0.255112  0.856801  0  .  1
   Li  Li6  1  0.502640  0.747241  0.502695  0  .  1
   Li  Li7  1  0.861635  0.507124  0.863026  0  .  1
   Li  Li8  1  0.883599  0.748374  0.878928  0  .  1
   Li  Li9  1  0.878452  0.001407  0.874368  0  .  1
   Mn  Mn10  1  0.992601  0.250880  0.506847  0  .  1
   Mn  Mn11  1  0.509064  0.125116  0.498690  0  .  1
   Mn  Mn12  1  0.503353  0.250326  0.505384  0  .  1
   Mn  Mn13  1  0.996886  0.501236  0.494870  0  .  1
   Mn  Mn14  1  0.509015  0.375336  0.495742  0  .  1
   Mn  Mn15  1  0.996457  0.749729  0.499491  0  .  1
   Mn  Mn16  1  0.496656  0.502253  0.494068  0  .  1
   Mn  Mn17  1  0.483185  0.628000  0.495950  0  .  1
   Mn  Mn18  1  0.488603  0.377919  0.001128  0  .  1
   Mn  Mn19  1  0.119624  0.993674  0.142146  0  .  1
   Mn  Mn20  1  0.006985  0.996860  0.504133  0  .  1
   Mn  Mn21  1  0.502083  0.869621  0.510474  0  .  1
   Mn  Mn22  1  0.509448  0.625132  0.991874  0  .  1
   Mn  Mn23  1  0.499947  0.998872  0.501045  0  .  1
   Mn  Mn24  1  0.501537  0.872431  0.002674  0  .  1
   O  O25  1  0.251583  0.102249  0.296144  0  .  1
   O  O26  1  0.261183  0.248967  0.273838  0  .  1
   O  O27  1  0.765617  0.104473  0.282446  0  .  1
   O  O28  1  0.240693  0.142858  0.725922  0  .  1
   O  O29  1  0.265538  0.360421  0.270326  0  .  1
   O  O30  1  0.714128  0.241670  0.291215  0  .  1
   O  O31  1  0.294037  0.263415  0.704447  0  .  1
   O  O32  1  0.294512  0.501071  0.242539  0  .  1
   O  O33  1  0.746217  0.144632  0.718055  0  .  1
   O  O34  1  0.746165  0.363426  0.285566  0  .  1
   O  O35  1  0.278188  0.385230  0.707146  0  .  1
   O  O36  1  0.267759  0.609852  0.260456  0  .  1
   O  O37  1  0.751146  0.263369  0.704943  0  .  1
   O  O38  1  0.714938  0.502847  0.259494  0  .  1
   O  O39  1  0.271435  0.510039  0.705514  0  .  1
   O  O40  1  0.248606  0.753073  0.258700  0  .  1
   O  O41  1  0.717554  0.615354  0.285068  0  .  1
   O  O42  1  0.247293  0.635639  0.703364  0  .  1
   O  O43  1  0.729514  0.393198  0.727194  0  .  1
   O  O44  1  0.264205  0.865681  0.243006  0  .  1
   O  O45  1  0.701512  0.507624  0.736002  0  .  1
   O  O46  1  0.706835  0.749604  0.245824  0  .  1
   O  O47  1  0.290258  0.745026  0.761417  0  .  1
   O  O48  1  0.251838  0.983695  0.303542  0  .  1
   O  O49  1  0.744461  0.636192  0.747674  0  .  1
   O  O50  1  0.744446  0.867944  0.290603  0  .  1
   O  O51  1  0.261804  0.885770  0.717784  0  .  1
   O  O52  1  0.749889  0.748746  0.735131  0  .  1
   O  O53  1  0.705655  0.989091  0.295607  0  .  1
   O  O54  1  0.298521  0.999730  0.732740  0  .  1
   O  O55  1  0.731461  0.886384  0.741764  0  .  1
   O  O56  1  0.743653  0.994546  0.743106  0  .  1
 
