#\#CIF1.1
##########################################################################
#               Crystallographic Information Format file 
#               Produced by PyCifRW module
# 
#  This is a CIF file.  CIF has been adopted by the International
#  Union of Crystallography as the standard for data archiving and 
#  transmission.
#
#  For information on this file format, follow the CIF links at
#  http://www.iucr.org
##########################################################################

data_Li9Mn21O40
_symmetry_space_group_name_H-M          'P 1'
_cell_length_a                          6.02394232016
_cell_length_b                          6.02240130711
_cell_length_c                          21.1311524292
_cell_angle_alpha                       97.9628012245
_cell_angle_beta                        82.4476591999
_cell_angle_gamma                       86.1817241772
_chemical_name_systematic               'Generated by pymatgen'
_symmetry_Int_Tables_number             1
_chemical_formula_structural            Li9Mn21O40
_chemical_formula_sum                   'Li9 Mn21 O40'
_cell_volume                            749.818298017
_cell_formula_units_Z                   1
loop_
  _symmetry_equiv_pos_site_id
  _symmetry_equiv_pos_as_xyz
   1  'x, y, z'
 
loop_
  _atom_site_type_symbol
  _atom_site_label
  _atom_site_symmetry_multiplicity
  _atom_site_fract_x
  _atom_site_fract_y
  _atom_site_fract_z
  _atom_site_attached_hydrogens
  _atom_site_B_iso_or_equiv
  _atom_site_occupancy
   Li  Li1  1  0.976690  0.777713  0.048396  0  .  1
   Li  Li2  1  0.371244  0.376090  0.251553  0  .  1
   Li  Li3  1  0.822639  0.419778  0.351145  0  .  1
   Li  Li4  1  0.780934  0.983562  0.451223  0  .  1
   Li  Li5  1  0.216601  0.014356  0.550420  0  .  1
   Li  Li6  1  0.584072  0.182866  0.848997  0  .  1
   Li  Li7  1  0.184500  0.583684  0.650074  0  .  1
   Li  Li8  1  0.616287  0.615501  0.749697  0  .  1
   Li  Li9  1  0.019961  0.218650  0.949012  0  .  1
   Mn  Mn10  1  0.502057  0.001646  0.996558  0  .  1
   Mn  Mn11  1  0.896537  0.105370  0.200919  0  .  1
   Mn  Mn12  1  0.505164  0.499103  0.997845  0  .  1
   Mn  Mn13  1  0.703896  0.295451  0.099669  0  .  1
   Mn  Mn14  1  0.195735  0.300571  0.098057  0  .  1
   Mn  Mn15  1  0.902303  0.594357  0.200632  0  .  1
   Mn  Mn16  1  0.426994  0.827649  0.150073  0  .  1
   Mn  Mn17  1  0.294145  0.198397  0.402224  0  .  1
   Mn  Mn18  1  0.601511  0.902436  0.303740  0  .  1
   Mn  Mn19  1  0.900388  0.100507  0.700153  0  .  1
   Mn  Mn20  1  0.700412  0.299243  0.600092  0  .  1
   Mn  Mn21  1  0.295059  0.696863  0.400555  0  .  1
   Mn  Mn22  1  0.500767  0.498937  0.500045  0  .  1
   Mn  Mn23  1  0.098313  0.905722  0.302088  0  .  1
   Mn  Mn24  1  0.700145  0.799947  0.600284  0  .  1
   Mn  Mn25  1  0.400529  0.099791  0.699887  0  .  1
   Mn  Mn26  1  0.998890  0.500247  0.500926  0  .  1
   Mn  Mn27  1  0.800307  0.698787  0.898325  0  .  1
   Mn  Mn28  1  0.101121  0.399886  0.799290  0  .  1
   Mn  Mn29  1  0.100588  0.900112  0.799683  0  .  1
   Mn  Mn30  1  0.299748  0.698090  0.898937  0  .  1
   O  O31  1  0.937044  0.069739  0.106820  0  .  1
   O  O32  1  0.711707  0.235780  0.003093  0  .  1
   O  O33  1  0.955114  0.535526  0.105146  0  .  1
   O  O34  1  0.265971  0.240615  0.003163  0  .  1
   O  O35  1  0.442482  0.062701  0.091275  0  .  1
   O  O36  1  0.858787  0.126658  0.295209  0  .  1
   O  O37  1  0.463094  0.525090  0.093480  0  .  1
   O  O38  1  0.666915  0.337276  0.195420  0  .  1
   O  O39  1  0.130540  0.349332  0.194015  0  .  1
   O  O40  1  0.670246  0.847660  0.207715  0  .  1
   O  O41  1  0.335597  0.124869  0.307547  0  .  1
   O  O42  1  0.867867  0.682843  0.298034  0  .  1
   O  O43  1  0.337546  0.679631  0.307013  0  .  1
   O  O44  1  0.129546  0.866819  0.208244  0  .  1
   O  O45  1  0.507435  0.434376  0.404681  0  .  1
   O  O46  1  0.760446  0.290002  0.505292  0  .  1
   O  O47  1  0.909399  0.038266  0.605162  0  .  1
   O  O48  1  0.939239  0.562652  0.594376  0  .  1
   O  O49  1  0.532453  0.962534  0.397020  0  .  1
   O  O50  1  0.762798  0.738025  0.506427  0  .  1
   O  O51  1  0.058470  0.436476  0.407837  0  .  1
   O  O52  1  0.461403  0.036614  0.605962  0  .  1
   O  O53  1  0.236506  0.260553  0.494994  0  .  1
   O  O54  1  0.891644  0.161521  0.794704  0  .  1
   O  O55  1  0.491643  0.560556  0.594981  0  .  1
   O  O56  1  0.083766  0.960131  0.396428  0  .  1
   O  O57  1  0.240246  0.708321  0.495362  0  .  1
   O  O58  1  0.639403  0.309131  0.694923  0  .  1
   O  O59  1  0.862365  0.636521  0.804733  0  .  1
   O  O60  1  0.339859  0.162685  0.793440  0  .  1
   O  O61  1  0.637751  0.860571  0.693835  0  .  1
   O  O62  1  0.163635  0.338589  0.705671  0  .  1
   O  O63  1  0.562531  0.489183  0.903128  0  .  1
   O  O64  1  0.161620  0.891139  0.704853  0  .  1
   O  O65  1  0.310021  0.638828  0.804342  0  .  1
   O  O66  1  0.037599  0.460356  0.892822  0  .  1
   O  O67  1  0.739291  0.762417  0.991474  0  .  1
   O  O68  1  0.562583  0.937506  0.903789  0  .  1
   O  O69  1  0.292257  0.762863  0.993577  0  .  1
   O  O70  1  0.037476  0.908191  0.894148  0  .  1
 
