#\#CIF1.1
##########################################################################
#               Crystallographic Information Format file 
#               Produced by PyCifRW module
# 
#  This is a CIF file.  CIF has been adopted by the International
#  Union of Crystallography as the standard for data archiving and 
#  transmission.
#
#  For information on this file format, follow the CIF links at
#  http://www.iucr.org
##########################################################################

data_Li9V14O35
_symmetry_space_group_name_H-M          'P 1'
_cell_length_a                          15.007412816
_cell_length_b                          4.82687399
_cell_length_c                          20.7523604329
_cell_angle_alpha                       90.0
_cell_angle_beta                        108.127815194
_cell_angle_gamma                       90.0
_chemical_name_systematic               'Generated by pymatgen'
_symmetry_Int_Tables_number             1
_chemical_formula_structural            Li9V14O35
_chemical_formula_sum                   'Li18 V28 O70'
_cell_volume                            1428.66245895
_cell_formula_units_Z                   2
loop_
  _symmetry_equiv_pos_site_id
  _symmetry_equiv_pos_as_xyz
   1  'x, y, z'
 
loop_
  _atom_site_type_symbol
  _atom_site_label
  _atom_site_symmetry_multiplicity
  _atom_site_fract_x
  _atom_site_fract_y
  _atom_site_fract_z
  _atom_site_attached_hydrogens
  _atom_site_B_iso_or_equiv
  _atom_site_occupancy
   Li  Li1  1  0.000000  0.390327  0.750000  0  .  1
   Li  Li2  1  0.136656  0.348583  0.924960  0  .  1
   Li  Li3  1  0.000000  0.609673  0.250000  0  .  1
   Li  Li4  1  0.221502  0.366263  0.699092  0  .  1
   Li  Li5  1  0.136656  0.651417  0.424960  0  .  1
   Li  Li6  1  0.350634  0.362143  0.887328  0  .  1
   Li  Li7  1  0.221502  0.633737  0.199092  0  .  1
   Li  Li8  1  0.426510  0.356353  0.645699  0  .  1
   Li  Li9  1  0.350634  0.637857  0.387328  0  .  1
   Li  Li10  1  0.573490  0.356353  0.854301  0  .  1
   Li  Li11  1  0.426510  0.643647  0.145699  0  .  1
   Li  Li12  1  0.649366  0.362143  0.612672  0  .  1
   Li  Li13  1  0.573490  0.643647  0.354301  0  .  1
   Li  Li14  1  0.778498  0.366263  0.800908  0  .  1
   Li  Li15  1  0.649366  0.637857  0.112672  0  .  1
   Li  Li16  1  0.863344  0.348583  0.575040  0  .  1
   Li  Li17  1  0.778498  0.633737  0.300908  0  .  1
   Li  Li18  1  0.863344  0.651417  0.075040  0  .  1
   V  V19  1  0.066393  0.921997  0.652698  0  .  1
   V  V20  1  0.144896  0.931122  0.816698  0  .  1
   V  V21  1  0.091581  0.124719  0.518787  0  .  1
   V  V22  1  0.301183  0.892895  0.974601  0  .  1
   V  V23  1  0.066393  0.078003  0.152698  0  .  1
   V  V24  1  0.144896  0.068878  0.316698  0  .  1
   V  V25  1  0.277887  0.895555  0.608167  0  .  1
   V  V26  1  0.400647  0.840249  0.768844  0  .  1
   V  V27  1  0.091581  0.875281  0.018787  0  .  1
   V  V28  1  0.301183  0.107105  0.474601  0  .  1
   V  V29  1  0.510610  0.895459  0.932894  0  .  1
   V  V30  1  0.277887  0.104445  0.108167  0  .  1
   V  V31  1  0.489390  0.895459  0.567106  0  .  1
   V  V32  1  0.599353  0.840249  0.731156  0  .  1
   V  V33  1  0.400647  0.159751  0.268844  0  .  1
   V  V34  1  0.510610  0.104541  0.432894  0  .  1
   V  V35  1  0.722113  0.895555  0.891833  0  .  1
   V  V36  1  0.489390  0.104541  0.067106  0  .  1
   V  V37  1  0.698817  0.892895  0.525399  0  .  1
   V  V38  1  0.908419  0.124719  0.981213  0  .  1
   V  V39  1  0.599353  0.159751  0.231156  0  .  1
   V  V40  1  0.722113  0.104445  0.391833  0  .  1
   V  V41  1  0.855104  0.931122  0.683302  0  .  1
   V  V42  1  0.933607  0.921997  0.847302  0  .  1
   V  V43  1  0.698817  0.107105  0.025399  0  .  1
   V  V44  1  0.908419  0.875281  0.481213  0  .  1
   V  V45  1  0.855104  0.068878  0.183302  0  .  1
   V  V46  1  0.933607  0.078003  0.347302  0  .  1
   O  O47  1  0.008758  0.044293  0.941150  0  .  1
   O  O48  1  0.039756  0.075465  0.823542  0  .  1
   O  O49  1  0.071401  0.578681  0.660190  0  .  1
   O  O50  1  0.130844  0.586944  0.820221  0  .  1
   O  O51  1  0.008758  0.955707  0.441150  0  .  1
   O  O52  1  0.154231  0.050049  0.738401  0  .  1
   O  O53  1  0.238975  0.058620  0.884850  0  .  1
   O  O54  1  0.291766  0.555195  0.957486  0  .  1
   O  O55  1  0.100670  0.455275  0.501820  0  .  1
   O  O56  1  0.163242  0.057567  0.614677  0  .  1
   O  O57  1  0.039756  0.924535  0.323542  0  .  1
   O  O58  1  0.202925  0.956279  0.508872  0  .  1
   O  O59  1  0.416933  0.058505  0.968181  0  .  1
   O  O60  1  0.325865  0.603679  0.781874  0  .  1
   O  O61  1  0.071401  0.421319  0.160190  0  .  1
   O  O62  1  0.130844  0.413056  0.320221  0  .  1
   O  O63  1  0.294489  0.559070  0.627341  0  .  1
   O  O64  1  0.348388  0.056672  0.699253  0  .  1
   O  O65  1  0.154231  0.949951  0.238401  0  .  1
   O  O66  1  0.238975  0.941380  0.384850  0  .  1
   O  O67  1  0.446682  0.054872  0.839885  0  .  1
   O  O68  1  0.291766  0.444805  0.457486  0  .  1
   O  O69  1  0.498097  0.558736  0.913078  0  .  1
   O  O70  1  0.100670  0.544725  0.001820  0  .  1
   O  O71  1  0.163242  0.942433  0.114677  0  .  1
   O  O72  1  0.373230  0.056455  0.573610  0  .  1
   O  O73  1  0.500000  0.662108  0.750000  0  .  1
   O  O74  1  0.202925  0.043721  0.008872  0  .  1
   O  O75  1  0.416933  0.941495  0.468181  0  .  1
   O  O76  1  0.325865  0.396321  0.281874  0  .  1
   O  O77  1  0.626770  0.056455  0.926390  0  .  1
   O  O78  1  0.294489  0.440930  0.127341  0  .  1
   O  O79  1  0.501903  0.558736  0.586922  0  .  1
   O  O80  1  0.348388  0.943328  0.199253  0  .  1
   O  O81  1  0.553318  0.054872  0.660115  0  .  1
   O  O82  1  0.446682  0.945128  0.339885  0  .  1
   O  O83  1  0.651612  0.056672  0.800747  0  .  1
   O  O84  1  0.498097  0.441264  0.413078  0  .  1
   O  O85  1  0.705511  0.559070  0.872659  0  .  1
   O  O86  1  0.373230  0.943545  0.073610  0  .  1
   O  O87  1  0.674135  0.603679  0.718126  0  .  1
   O  O88  1  0.583067  0.058505  0.531819  0  .  1
   O  O89  1  0.797075  0.956279  0.991128  0  .  1
   O  O90  1  0.500000  0.337892  0.250000  0  .  1
   O  O91  1  0.626770  0.943545  0.426390  0  .  1
   O  O92  1  0.836758  0.057567  0.885323  0  .  1
   O  O93  1  0.899330  0.455275  0.998180  0  .  1
   O  O94  1  0.501903  0.441264  0.086922  0  .  1
   O  O95  1  0.708234  0.555195  0.542514  0  .  1
   O  O96  1  0.553318  0.945128  0.160115  0  .  1
   O  O97  1  0.761025  0.058620  0.615150  0  .  1
   O  O98  1  0.845769  0.050049  0.761599  0  .  1
   O  O99  1  0.651612  0.943328  0.300747  0  .  1
   O  O100  1  0.705511  0.440930  0.372659  0  .  1
   O  O101  1  0.869156  0.586944  0.679779  0  .  1
   O  O102  1  0.928599  0.578681  0.839810  0  .  1
   O  O103  1  0.674135  0.396321  0.218126  0  .  1
   O  O104  1  0.583067  0.941495  0.031819  0  .  1
   O  O105  1  0.797075  0.043721  0.491128  0  .  1
   O  O106  1  0.960244  0.075465  0.676458  0  .  1
   O  O107  1  0.836758  0.942433  0.385323  0  .  1
   O  O108  1  0.899330  0.544725  0.498180  0  .  1
   O  O109  1  0.708234  0.444805  0.042514  0  .  1
   O  O110  1  0.761025  0.941380  0.115150  0  .  1
   O  O111  1  0.845769  0.949951  0.261599  0  .  1
   O  O112  1  0.991242  0.044293  0.558850  0  .  1
   O  O113  1  0.869156  0.413056  0.179779  0  .  1
   O  O114  1  0.928599  0.421319  0.339810  0  .  1
   O  O115  1  0.960244  0.924535  0.176458  0  .  1
   O  O116  1  0.991242  0.955707  0.058850  0  .  1
 
