#\#CIF1.1
##########################################################################
#               Crystallographic Information Format file 
#               Produced by PyCifRW module
# 
#  This is a CIF file.  CIF has been adopted by the International
#  Union of Crystallography as the standard for data archiving and 
#  transmission.
#
#  For information on this file format, follow the CIF links at
#  http://www.iucr.org
##########################################################################

data_LiCo8O9
_symmetry_space_group_name_H-M          'P 1'
_cell_length_a                          5.21617447913
_cell_length_b                          6.71394377054
_cell_length_c                          5.21450713958
_cell_angle_alpha                       83.0606304438
_cell_angle_beta                        99.23888848
_cell_angle_gamma                       104.848210632
_chemical_name_systematic               'Generated by pymatgen'
_symmetry_Int_Tables_number             1
_chemical_formula_structural            LiCo8O9
_chemical_formula_sum                   'Li1 Co8 O9'
_cell_volume                            173.62130765
_cell_formula_units_Z                   1
loop_
  _symmetry_equiv_pos_site_id
  _symmetry_equiv_pos_as_xyz
   1  'x, y, z'
 
loop_
  _atom_site_type_symbol
  _atom_site_label
  _atom_site_symmetry_multiplicity
  _atom_site_fract_x
  _atom_site_fract_y
  _atom_site_fract_z
  _atom_site_attached_hydrogens
  _atom_site_B_iso_or_equiv
  _atom_site_occupancy
   Li  Li1  1  0.000000  0.000000  0.000000  0  .  1
   Co  Co2  1  0.109846  0.443201  0.778251  0  .  1
   Co  Co3  1  0.555448  0.218806  0.890757  0  .  1
   Co  Co4  1  0.221226  0.891744  0.559540  0  .  1
   Co  Co5  1  0.673456  0.672126  0.666339  0  .  1
   Co  Co6  1  0.778774  0.108256  0.440460  0  .  1
   Co  Co7  1  0.326544  0.327874  0.333661  0  .  1
   Co  Co8  1  0.890154  0.556799  0.221749  0  .  1
   Co  Co9  1  0.444552  0.781194  0.109243  0  .  1
   O  O10  1  0.059429  0.716445  0.887995  0  .  1
   O  O11  1  0.167307  0.170337  0.661428  0  .  1
   O  O12  1  0.720288  0.388114  0.556148  0  .  1
   O  O13  1  0.602728  0.944046  0.773874  0  .  1
   O  O14  1  0.279712  0.611886  0.443852  0  .  1
   O  O15  1  0.397272  0.055954  0.226126  0  .  1
   O  O16  1  0.832693  0.829663  0.338572  0  .  1
   O  O17  1  0.500000  0.500000  0.000000  0  .  1
   O  O18  1  0.940571  0.283555  0.112005  0  .  1
 
