#\#CIF1.1
##########################################################################
#               Crystallographic Information Format file 
#               Produced by PyCifRW module
# 
#  This is a CIF file.  CIF has been adopted by the International
#  Union of Crystallography as the standard for data archiving and 
#  transmission.
#
#  For information on this file format, follow the CIF links at
#  http://www.iucr.org
##########################################################################

data_LiCoS2
_symmetry_space_group_name_H-M          'P 1'
_cell_length_a                          3.42139324277
_cell_length_b                          3.42608469002
_cell_length_c                          5.67328903342
_cell_angle_alpha                       89.9902180281
_cell_angle_beta                        90.1371657086
_cell_angle_gamma                       59.9960363751
_chemical_name_systematic               'Generated by pymatgen'
_symmetry_Int_Tables_number             1
_chemical_formula_structural            LiCoS2
_chemical_formula_sum                   'Li1 Co1 S2'
_cell_volume                            57.5900553038
_cell_formula_units_Z                   1
loop_
  _symmetry_equiv_pos_site_id
  _symmetry_equiv_pos_as_xyz
   1  'x, y, z'
 
loop_
  _atom_site_type_symbol
  _atom_site_label
  _atom_site_symmetry_multiplicity
  _atom_site_fract_x
  _atom_site_fract_y
  _atom_site_fract_z
  _atom_site_attached_hydrogens
  _atom_site_B_iso_or_equiv
  _atom_site_occupancy
   Li  Li1  1  0.986329  0.517316  0.000555  0  .  1
   Co  Co2  1  0.993997  0.506312  0.499479  0  .  1
   S  S3  1  0.661981  0.172444  0.702060  0  .  1
   S  S4  1  0.325351  0.841241  0.296802  0  .  1
 
