#\#CIF1.1
##########################################################################
#               Crystallographic Information Format file 
#               Produced by PyCifRW module
# 
#  This is a CIF file.  CIF has been adopted by the International
#  Union of Crystallography as the standard for data archiving and 
#  transmission.
#
#  For information on this file format, follow the CIF links at
#  http://www.iucr.org
##########################################################################

data_LiCo3O4
_symmetry_space_group_name_H-M          'P 1'
_cell_length_a                          5.99301762798
_cell_length_b                          2.99422177603
_cell_length_c                          6.00620937124
_cell_angle_alpha                       60.2171769909
_cell_angle_beta                        91.2091952654
_cell_angle_gamma                       120.851371708
_chemical_name_systematic               'Generated by pymatgen'
_symmetry_Int_Tables_number             1
_chemical_formula_structural            LiCo3O4
_chemical_formula_sum                   'Li1 Co3 O4'
_cell_volume                            76.256533677
_cell_formula_units_Z                   1
loop_
  _symmetry_equiv_pos_site_id
  _symmetry_equiv_pos_as_xyz
   1  'x, y, z'
 
loop_
  _atom_site_type_symbol
  _atom_site_label
  _atom_site_symmetry_multiplicity
  _atom_site_fract_x
  _atom_site_fract_y
  _atom_site_fract_z
  _atom_site_attached_hydrogens
  _atom_site_B_iso_or_equiv
  _atom_site_occupancy
   Li  Li1  1  0.000061  0.999459  0.500303  0  .  1
   Co  Co2  1  0.000037  0.999364  0.000322  0  .  1
   Co  Co3  1  0.500041  0.999375  0.000323  0  .  1
   Co  Co4  1  0.500039  0.999367  0.500325  0  .  1
   O  O5  1  0.267423  0.040295  0.234513  0  .  1
   O  O6  1  0.743876  -0.003838  0.241512  0  .  1
   O  O7  1  0.256191  0.002529  0.759145  0  .  1
   O  O8  1  0.732648  0.958425  0.766137  0  .  1
 
