#\#CIF1.1
##########################################################################
#               Crystallographic Information Format file 
#               Produced by PyCifRW module
# 
#  This is a CIF file.  CIF has been adopted by the International
#  Union of Crystallography as the standard for data archiving and 
#  transmission.
#
#  For information on this file format, follow the CIF links at
#  http://www.iucr.org
##########################################################################

data_LiCo6O7
_symmetry_space_group_name_H-M          'P 1'
_cell_length_a                          21.1950751238
_cell_length_b                          10.8851798068
_cell_length_c                          5.22406490365
_cell_angle_alpha                       28.1142466819
_cell_angle_beta                        29.7860747181
_cell_angle_gamma                       13.8037249433
_chemical_name_systematic               'Generated by pymatgen'
_symmetry_Int_Tables_number             1
_chemical_formula_structural            LiCo6O7
_chemical_formula_sum                   'Li1 Co6 O7'
_cell_volume                            134.819657126
_cell_formula_units_Z                   1
loop_
  _symmetry_equiv_pos_site_id
  _symmetry_equiv_pos_as_xyz
   1  'x, y, z'
 
loop_
  _atom_site_type_symbol
  _atom_site_label
  _atom_site_symmetry_multiplicity
  _atom_site_fract_x
  _atom_site_fract_y
  _atom_site_fract_z
  _atom_site_attached_hydrogens
  _atom_site_B_iso_or_equiv
  _atom_site_occupancy
   Li  Li1  1  0.000330  0.999400  0.000191  0  .  1
   Co  Co2  1  0.282874  0.004614  0.999552  0  .  1
   Co  Co3  1  0.140237  0.002235  0.005935  0  .  1
   Co  Co4  1  0.428455  0.003386  0.996758  0  .  1
   Co  Co5  1  0.571199  0.997845  0.002118  0  .  1
   Co  Co6  1  0.716911  0.995784  0.000742  0  .  1
   Co  Co7  1  0.860020  0.996965  0.994927  0  .  1
   O  O8  1  0.071394  0.490538  0.512808  0  .  1
   O  O9  1  0.500381  0.498890  0.501063  0  .  1
   O  O10  1  0.220707  0.487818  0.508639  0  .  1
   O  O11  1  0.927900  0.511133  0.485866  0  .  1
   O  O12  1  0.367452  0.484657  0.488605  0  .  1
   O  O13  1  0.632880  0.514575  0.511066  0  .  1
   O  O14  1  0.779259  0.512160  0.491730  0  .  1
 
