#\#CIF1.1
##########################################################################
#               Crystallographic Information Format file 
#               Produced by PyCifRW module
# 
#  This is a CIF file.  CIF has been adopted by the International
#  Union of Crystallography as the standard for data archiving and 
#  transmission.
#
#  For information on this file format, follow the CIF links at
#  http://www.iucr.org
##########################################################################

data_LiCr2O4
_symmetry_space_group_name_H-M          'P 1'
_cell_length_a                          5.08743606936
_cell_length_b                          5.79209240776
_cell_length_c                          5.79801056456
_cell_angle_alpha                       119.110604782
_cell_angle_beta                        90.290032573
_cell_angle_gamma                       89.6958859081
_chemical_name_systematic               'Generated by pymatgen'
_symmetry_Int_Tables_number             1
_chemical_formula_structural            LiCr2O4
_chemical_formula_sum                   'Li2 Cr4 O8'
_cell_volume                            149.265371544
_cell_formula_units_Z                   2
loop_
  _symmetry_equiv_pos_site_id
  _symmetry_equiv_pos_as_xyz
   1  'x, y, z'
 
loop_
  _atom_site_type_symbol
  _atom_site_label
  _atom_site_symmetry_multiplicity
  _atom_site_fract_x
  _atom_site_fract_y
  _atom_site_fract_z
  _atom_site_attached_hydrogens
  _atom_site_B_iso_or_equiv
  _atom_site_occupancy
   Li  Li1  1  0.500424  0.485144  0.984453  0  .  1
   Li  Li2  1  0.999532  0.764893  0.265490  0  .  1
   Cr  Cr3  1  0.001238  0.015600  0.983787  0  .  1
   Cr  Cr4  1  0.498786  0.234351  0.266159  0  .  1
   Cr  Cr5  1  0.999027  0.484476  0.516255  0  .  1
   Cr  Cr6  1  0.500973  0.765463  0.733738  0  .  1
   O  O7  1  0.821383  0.360987  0.162450  0  .  1
   O  O8  1  0.157928  0.134714  0.344098  0  .  1
   O  O9  1  0.678683  0.888957  0.087532  0  .  1
   O  O10  1  0.657564  0.405025  0.615312  0  .  1
   O  O11  1  0.321560  0.588031  0.388938  0  .  1
   O  O12  1  0.342003  0.115324  0.905916  0  .  1
   O  O13  1  0.842551  0.844914  0.634631  0  .  1
   O  O14  1  0.178359  0.661911  0.861026  0  .  1
 
