#\#CIF1.1
##########################################################################
#               Crystallographic Information Format file 
#               Produced by PyCifRW module
# 
#  This is a CIF file.  CIF has been adopted by the International
#  Union of Crystallography as the standard for data archiving and 
#  transmission.
#
#  For information on this file format, follow the CIF links at
#  http://www.iucr.org
##########################################################################

data_LiCr2O5
_symmetry_space_group_name_H-M          'P 1'
_cell_length_a                          8.0004901
_cell_length_b                          8.27817961
_cell_length_c                          6.08500505
_cell_angle_alpha                       90.0
_cell_angle_beta                        90.0
_cell_angle_gamma                       90.0
_chemical_name_systematic               'Generated by pymatgen'
_symmetry_Int_Tables_number             1
_chemical_formula_structural            LiCr2O5
_chemical_formula_sum                   'Li4 Cr8 O20'
_cell_volume                            403.006805545
_cell_formula_units_Z                   4
loop_
  _symmetry_equiv_pos_site_id
  _symmetry_equiv_pos_as_xyz
   1  'x, y, z'
 
loop_
  _atom_site_type_symbol
  _atom_site_label
  _atom_site_symmetry_multiplicity
  _atom_site_fract_x
  _atom_site_fract_y
  _atom_site_fract_z
  _atom_site_attached_hydrogens
  _atom_site_B_iso_or_equiv
  _atom_site_occupancy
   Li  Li1  1  0.154831  0.341373  0.750000  0  .  1
   Li  Li2  1  0.345169  0.841373  0.750000  0  .  1
   Li  Li3  1  0.654831  0.158627  0.250000  0  .  1
   Li  Li4  1  0.845169  0.658627  0.250000  0  .  1
   Cr  Cr5  1  0.000000  0.000000  0.000000  0  .  1
   Cr  Cr6  1  0.000000  0.000000  0.500000  0  .  1
   Cr  Cr7  1  0.145450  0.333699  0.250000  0  .  1
   Cr  Cr8  1  0.354550  0.833699  0.250000  0  .  1
   Cr  Cr9  1  0.500000  0.500000  0.000000  0  .  1
   Cr  Cr10  1  0.500000  0.500000  0.500000  0  .  1
   Cr  Cr11  1  0.645450  0.166301  0.750000  0  .  1
   Cr  Cr12  1  0.854550  0.666301  0.750000  0  .  1
   O  O13  1  0.992263  0.522870  0.750000  0  .  1
   O  O14  1  0.117970  0.216844  0.022637  0  .  1
   O  O15  1  0.117970  0.216844  0.477363  0  .  1
   O  O16  1  0.132242  0.945966  0.750000  0  .  1
   O  O17  1  0.149667  0.911207  0.250000  0  .  1
   O  O18  1  0.350333  0.411207  0.250000  0  .  1
   O  O19  1  0.367758  0.445966  0.750000  0  .  1
   O  O20  1  0.382030  0.716844  0.477363  0  .  1
   O  O21  1  0.382030  0.716844  0.022637  0  .  1
   O  O22  1  0.507737  0.022870  0.750000  0  .  1
   O  O23  1  0.492263  0.977130  0.250000  0  .  1
   O  O24  1  0.617970  0.283156  0.977363  0  .  1
   O  O25  1  0.617970  0.283156  0.522637  0  .  1
   O  O26  1  0.632242  0.554034  0.250000  0  .  1
   O  O27  1  0.649667  0.588793  0.750000  0  .  1
   O  O28  1  0.850333  0.088793  0.750000  0  .  1
   O  O29  1  0.867758  0.054034  0.250000  0  .  1
   O  O30  1  0.882030  0.783156  0.977363  0  .  1
   O  O31  1  0.882030  0.783156  0.522637  0  .  1
   O  O32  1  0.007737  0.477130  0.250000  0  .  1
 
