#\#CIF1.1
##########################################################################
#               Crystallographic Information Format file 
#               Produced by PyCifRW module
# 
#  This is a CIF file.  CIF has been adopted by the International
#  Union of Crystallography as the standard for data archiving and 
#  transmission.
#
#  For information on this file format, follow the CIF links at
#  http://www.iucr.org
##########################################################################

data_LiCu3O4
_symmetry_space_group_name_H-M          'P 1'
_cell_length_a                          5.71884025277
_cell_length_b                          6.3987790064
_cell_length_c                          5.71884027376
_cell_angle_alpha                       61.0601058198
_cell_angle_beta                        94.7547664496
_cell_angle_gamma                       118.939899917
_chemical_name_systematic               'Generated by pymatgen'
_symmetry_Int_Tables_number             1
_chemical_formula_structural            LiCu3O4
_chemical_formula_sum                   'Li2 Cu6 O8'
_cell_volume                            157.114285823
_cell_formula_units_Z                   2
loop_
  _symmetry_equiv_pos_site_id
  _symmetry_equiv_pos_as_xyz
   1  'x, y, z'
 
loop_
  _atom_site_type_symbol
  _atom_site_label
  _atom_site_symmetry_multiplicity
  _atom_site_fract_x
  _atom_site_fract_y
  _atom_site_fract_z
  _atom_site_attached_hydrogens
  _atom_site_B_iso_or_equiv
  _atom_site_occupancy
   Li  Li1  1  0.000000  0.000000  0.500000  0  .  1
   Li  Li2  1  0.000000  0.500000  0.500000  0  .  1
   Cu  Cu3  1  0.000000  0.000000  0.000000  0  .  1
   Cu  Cu4  1  0.500000  0.000000  0.000000  0  .  1
   Cu  Cu5  1  0.000000  0.500000  0.000000  0  .  1
   Cu  Cu6  1  0.500000  0.000000  0.500000  0  .  1
   Cu  Cu7  1  0.500000  0.500000  0.000000  0  .  1
   Cu  Cu8  1  0.500000  0.500000  0.500000  0  .  1
   O  O9  1  0.250464  0.956715  0.246631  0  .  1
   O  O10  1  0.661117  0.902482  0.316882  0  .  1
   O  O11  1  0.253369  0.456715  0.249536  0  .  1
   O  O12  1  0.816882  0.597518  0.161117  0  .  1
   O  O13  1  0.183118  0.402482  0.838883  0  .  1
   O  O14  1  0.746631  0.543285  0.750464  0  .  1
   O  O15  1  0.338883  0.097518  0.683118  0  .  1
   O  O16  1  0.749536  0.043285  0.753369  0  .  1
 
