#\#CIF1.1
##########################################################################
#               Crystallographic Information Format file 
#               Produced by PyCifRW module
# 
#  This is a CIF file.  CIF has been adopted by the International
#  Union of Crystallography as the standard for data archiving and 
#  transmission.
#
#  For information on this file format, follow the CIF links at
#  http://www.iucr.org
##########################################################################

data_LiFe23O32
_symmetry_space_group_name_H-M          'P 1'
_cell_length_a                          8.57177906559
_cell_length_b                          8.57177906559
_cell_length_c                          8.57177906559
_cell_angle_alpha                       89.9840721009
_cell_angle_beta                        90.0159278991
_cell_angle_gamma                       90.0159278991
_chemical_name_systematic               'Generated by pymatgen'
_symmetry_Int_Tables_number             1
_chemical_formula_structural            LiFe23O32
_chemical_formula_sum                   'Li1 Fe23 O32'
_cell_volume                            629.814791266
_cell_formula_units_Z                   1
loop_
  _symmetry_equiv_pos_site_id
  _symmetry_equiv_pos_as_xyz
   1  'x, y, z'
 
loop_
  _atom_site_type_symbol
  _atom_site_label
  _atom_site_symmetry_multiplicity
  _atom_site_fract_x
  _atom_site_fract_y
  _atom_site_fract_z
  _atom_site_attached_hydrogens
  _atom_site_B_iso_or_equiv
  _atom_site_occupancy
   Li  Li1  1  0.125000  0.875000  0.375000  0  .  1
   Fe  Fe2  1  0.002531  0.498487  0.498669  0  .  1
   Fe  Fe3  1  0.119732  0.628366  0.129086  0  .  1
   Fe  Fe4  1  0.125000  0.374385  0.875615  0  .  1
   Fe  Fe5  1  0.130268  0.120914  0.621634  0  .  1
   Fe  Fe6  1  0.247469  0.751331  0.751513  0  .  1
   Fe  Fe7  1  0.248669  0.251513  0.252531  0  .  1
   Fe  Fe8  1  0.370914  0.880268  0.128366  0  .  1
   Fe  Fe9  1  0.376402  0.126402  0.875000  0  .  1
   Fe  Fe10  1  0.371634  0.629086  0.380268  0  .  1
   Fe  Fe11  1  0.377091  0.375000  0.627091  0  .  1
   Fe  Fe12  1  0.495154  0.504846  0.004846  0  .  1
   Fe  Fe13  1  0.501513  0.998669  0.497469  0  .  1
   Fe  Fe14  1  0.624385  0.875000  0.874385  0  .  1
   Fe  Fe15  1  0.625000  0.127091  0.122909  0  .  1
   Fe  Fe16  1  0.625000  0.623598  0.626402  0  .  1
   Fe  Fe17  1  0.625615  0.375615  0.375000  0  .  1
   Fe  Fe18  1  0.748487  0.752531  0.251331  0  .  1
   Fe  Fe19  1  0.754846  0.245154  0.745154  0  .  1
   Fe  Fe20  1  0.872909  0.622909  0.875000  0  .  1
   Fe  Fe21  1  0.873598  0.375000  0.123598  0  .  1
   Fe  Fe22  1  0.878366  0.869732  0.620914  0  .  1
   Fe  Fe23  1  0.879086  0.121634  0.369732  0  .  1
   Fe  Fe24  1  0.001331  0.997469  0.998487  0  .  1
   O  O25  1  0.124182  0.614045  0.886037  0  .  1
   O  O26  1  0.114480  0.884949  0.628521  0  .  1
   O  O27  1  0.115051  0.128521  0.385520  0  .  1
   O  O28  1  0.125836  0.134441  0.864766  0  .  1
   O  O29  1  0.124164  0.385234  0.115559  0  .  1
   O  O30  1  0.134949  0.864480  0.121479  0  .  1
   O  O31  1  0.135520  0.621479  0.365051  0  .  1
   O  O32  1  0.125818  0.363963  0.635955  0  .  1
   O  O33  1  0.363265  0.636735  0.136735  0  .  1
   O  O34  1  0.365122  0.374518  0.875839  0  .  1
   O  O35  1  0.364880  0.122823  0.621899  0  .  1
   O  O36  1  0.371899  0.627177  0.614880  0  .  1
   O  O37  1  0.378521  0.865051  0.364480  0  .  1
   O  O38  1  0.384441  0.875836  0.885234  0  .  1
   O  O39  1  0.372823  0.114880  0.128101  0  .  1
   O  O40  1  0.385955  0.386037  0.375818  0  .  1
   O  O41  1  0.613963  0.875818  0.114045  0  .  1
   O  O42  1  0.614766  0.615559  0.375836  0  .  1
   O  O43  1  0.625839  0.375482  0.615122  0  .  1
   O  O44  1  0.625482  0.375839  0.134878  0  .  1
   O  O45  1  0.624518  0.115122  0.874161  0  .  1
   O  O46  1  0.624161  0.634878  0.874518  0  .  1
   O  O47  1  0.635234  0.874164  0.634441  0  .  1
   O  O48  1  0.636037  0.135955  0.374182  0  .  1
   O  O49  1  0.864045  0.874182  0.863963  0  .  1
   O  O50  1  0.877177  0.121899  0.135120  0  .  1
   O  O51  1  0.865559  0.364766  0.374164  0  .  1
   O  O52  1  0.871479  0.885520  0.384949  0  .  1
   O  O53  1  0.878101  0.635120  0.622823  0  .  1
   O  O54  1  0.885120  0.628101  0.127177  0  .  1
   O  O55  1  0.884878  0.374161  0.875482  0  .  1
   O  O56  1  0.886735  0.113265  0.613265  0  .  1
 
