#\#CIF1.1
##########################################################################
#               Crystallographic Information Format file 
#               Produced by PyCifRW module
# 
#  This is a CIF file.  CIF has been adopted by the International
#  Union of Crystallography as the standard for data archiving and 
#  transmission.
#
#  For information on this file format, follow the CIF links at
#  http://www.iucr.org
##########################################################################

data_LiFeO3
_symmetry_space_group_name_H-M          'P 1'
_cell_length_a                          2.91113634667
_cell_length_b                          6.19466025062
_cell_length_c                          5.79948457766
_cell_angle_alpha                       72.8829837291
_cell_angle_beta                        75.4611971572
_cell_angle_gamma                       89.9935239342
_chemical_name_systematic               'Generated by pymatgen'
_symmetry_Int_Tables_number             1
_chemical_formula_structural            LiFeO3
_chemical_formula_sum                   'Li2 Fe2 O6'
_cell_volume                            96.4436594468
_cell_formula_units_Z                   2
loop_
  _symmetry_equiv_pos_site_id
  _symmetry_equiv_pos_as_xyz
   1  'x, y, z'
 
loop_
  _atom_site_type_symbol
  _atom_site_label
  _atom_site_symmetry_multiplicity
  _atom_site_fract_x
  _atom_site_fract_y
  _atom_site_fract_z
  _atom_site_attached_hydrogens
  _atom_site_B_iso_or_equiv
  _atom_site_occupancy
   Li  Li1  1  0.555370  0.512545  0.889368  0  .  1
   Li  Li2  1  0.777972  0.154136  0.443956  0  .  1
   Fe  Fe3  1  0.340304  0.637427  0.319431  0  .  1
   Fe  Fe4  1  0.993031  0.029222  0.013901  0  .  1
   O  O5  1  0.170368  0.453758  0.659360  0  .  1
   O  O6  1  0.162964  0.212905  0.673978  0  .  1
   O  O7  1  0.817717  0.833875  0.364525  0  .  1
   O  O8  1  0.880865  0.479382  0.238320  0  .  1
   O  O9  1  0.515611  0.832789  0.968815  0  .  1
   O  O10  1  0.452466  0.187290  0.095011  0  .  1
 
