#\#CIF1.1
##########################################################################
#               Crystallographic Information Format file 
#               Produced by PyCifRW module
# 
#  This is a CIF file.  CIF has been adopted by the International
#  Union of Crystallography as the standard for data archiving and 
#  transmission.
#
#  For information on this file format, follow the CIF links at
#  http://www.iucr.org
##########################################################################

data_LiLa4NiO8
_symmetry_space_group_name_H-M          'P 1'
_cell_length_a                          5.34911136142
_cell_length_b                          5.35436546
_cell_length_c                          6.96753827519
_cell_angle_alpha                       90.0
_cell_angle_beta                        112.572954167
_cell_angle_gamma                       90.0
_chemical_name_systematic               'Generated by pymatgen'
_symmetry_Int_Tables_number             1
_chemical_formula_structural            LiLa4NiO8
_chemical_formula_sum                   'Li1 La4 Ni1 O8'
_cell_volume                            184.270109223
_cell_formula_units_Z                   1
loop_
  _symmetry_equiv_pos_site_id
  _symmetry_equiv_pos_as_xyz
   1  'x, y, z'
 
loop_
  _atom_site_type_symbol
  _atom_site_label
  _atom_site_symmetry_multiplicity
  _atom_site_fract_x
  _atom_site_fract_y
  _atom_site_fract_z
  _atom_site_attached_hydrogens
  _atom_site_B_iso_or_equiv
  _atom_site_occupancy
   Li  Li1  1  0.500000  0.000000  0.000000  0  .  1
   O  O2  1  0.176871  0.500000  0.353741  0  .  1
   O  O3  1  0.319524  0.000000  0.639047  0  .  1
   O  O4  1  0.680476  0.000000  0.360953  0  .  1
   O  O5  1  0.823129  0.500000  0.646259  0  .  1
   O  O6  1  0.754426  0.743364  0.000000  0  .  1
   O  O7  1  0.245574  0.256636  0.000000  0  .  1
   O  O8  1  0.245574  0.743364  0.000000  0  .  1
   O  O9  1  0.754426  0.256636  0.000000  0  .  1
   Ni  Ni10  1  0.000000  0.500000  0.000000  0  .  1
   La  La11  1  0.363260  0.500000  0.726520  0  .  1
   La  La12  1  0.636740  0.500000  0.273480  0  .  1
   La  La13  1  0.137615  0.000000  0.275230  0  .  1
   La  La14  1  0.862385  0.000000  0.724770  0  .  1
 
