#\#CIF1.1
##########################################################################
#               Crystallographic Information Format file 
#               Produced by PyCifRW module
# 
#  This is a CIF file.  CIF has been adopted by the International
#  Union of Crystallography as the standard for data archiving and 
#  transmission.
#
#  For information on this file format, follow the CIF links at
#  http://www.iucr.org
##########################################################################

data_LiMn3O6
_symmetry_space_group_name_H-M          'P 1'
_cell_length_a                          5.07270457208
_cell_length_b                          5.0727044349
_cell_length_c                          5.31351343163
_cell_angle_alpha                       100.19934328
_cell_angle_beta                        100.199344936
_cell_angle_gamma                       117.819662325
_chemical_name_systematic               'Generated by pymatgen'
_symmetry_Int_Tables_number             1
_chemical_formula_structural            LiMn3O6
_chemical_formula_sum                   'Li1 Mn3 O6'
_cell_volume                            113.594150792
_cell_formula_units_Z                   1
loop_
  _symmetry_equiv_pos_site_id
  _symmetry_equiv_pos_as_xyz
   1  'x, y, z'
 
loop_
  _atom_site_type_symbol
  _atom_site_label
  _atom_site_symmetry_multiplicity
  _atom_site_fract_x
  _atom_site_fract_y
  _atom_site_fract_z
  _atom_site_attached_hydrogens
  _atom_site_B_iso_or_equiv
  _atom_site_occupancy
   Li  Li1  1  0.500000  0.500000  0.500000  0  .  1
   Mn  Mn2  1  0.000000  0.000000  0.000000  0  .  1
   Mn  Mn3  1  0.666040  0.333960  0.000000  0  .  1
   Mn  Mn4  1  0.333960  0.666040  1.000000  0  .  1
   O  O5  1  0.302797  0.302797  0.782516  0  .  1
   O  O6  1  0.406754  0.077983  0.192397  0  .  1
   O  O7  1  0.077983  0.406754  0.192397  0  .  1
   O  O8  1  0.922017  0.593246  0.807603  0  .  1
   O  O9  1  0.593246  0.922017  0.807603  0  .  1
   O  O10  1  0.697203  0.697203  0.217484  0  .  1
 
