#\#CIF1.1
##########################################################################
#               Crystallographic Information Format file 
#               Produced by PyCifRW module
# 
#  This is a CIF file.  CIF has been adopted by the International
#  Union of Crystallography as the standard for data archiving and 
#  transmission.
#
#  For information on this file format, follow the CIF links at
#  http://www.iucr.org
##########################################################################

data_LiMn28O56
_symmetry_space_group_name_H-M          'P 1'
_cell_length_a                          10.0998901163
_cell_length_b                          10.0998901163
_cell_length_c                          10.0998901163
_cell_angle_alpha                       80.4070700783
_cell_angle_beta                        99.5929299217
_cell_angle_gamma                       80.4070700783
_chemical_name_systematic               'Generated by pymatgen'
_symmetry_Int_Tables_number             1
_chemical_formula_structural            LiMn28O56
_chemical_formula_sum                   'Li1 Mn28 O56'
_cell_volume                            981.423776556
_cell_formula_units_Z                   1
loop_
  _symmetry_equiv_pos_site_id
  _symmetry_equiv_pos_as_xyz
   1  'x, y, z'
 
loop_
  _atom_site_type_symbol
  _atom_site_label
  _atom_site_symmetry_multiplicity
  _atom_site_fract_x
  _atom_site_fract_y
  _atom_site_fract_z
  _atom_site_attached_hydrogens
  _atom_site_B_iso_or_equiv
  _atom_site_occupancy
   Li  Li1  1  0.517835  0.839308  0.446406  0  .  1
   Mn  Mn2  1  0.357217  0.785773  0.928126  0  .  1
   Mn  Mn3  1  0.000335  0.499651  0.500343  0  .  1
   Mn  Mn4  1  0.071406  0.357089  0.785974  0  .  1
   Mn  Mn5  1  0.284383  0.929359  0.643166  0  .  1
   Mn  Mn6  1  0.142503  0.714087  0.071256  0  .  1
   Mn  Mn7  1  0.142685  0.214640  0.571627  0  .  1
   Mn  Mn8  1  0.284770  0.928567  0.141422  0  .  1
   Mn  Mn9  1  0.572146  0.857428  0.787116  0  .  1
   Mn  Mn10  1  0.000054  0.499741  0.999977  0  .  1
   Mn  Mn11  1  0.999555  0.999925  0.499942  0  .  1
   Mn  Mn12  1  0.428287  0.641576  0.715172  0  .  1
   Mn  Mn13  1  0.285342  0.428361  0.643005  0  .  1
   Mn  Mn14  1  0.142791  0.214352  0.071363  0  .  1
   Mn  Mn15  1  0.857492  0.785372  0.928907  0  .  1
   Mn  Mn16  1  0.427784  0.642548  0.212955  0  .  1
   Mn  Mn17  1  0.786600  0.928856  0.644139  0  .  1
   Mn  Mn18  1  0.212850  0.072373  0.357148  0  .  1
   Mn  Mn19  1  0.571771  0.356808  0.786063  0  .  1
   Mn  Mn20  1  0.499715  0.498598  0.500717  0  .  1
   Mn  Mn21  1  0.428576  0.144293  0.213341  0  .  1
   Mn  Mn22  1  0.857402  0.285737  0.928625  0  .  1
   Mn  Mn23  1  0.858545  0.784997  0.428287  0  .  1
   Mn  Mn24  1  0.714433  0.071801  0.857353  0  .  1
   Mn  Mn25  1  0.715567  0.570542  0.356858  0  .  1
   Mn  Mn26  1  0.571370  0.357588  0.285789  0  .  1
   Mn  Mn27  1  0.714594  0.072759  0.356355  0  .  1
   Mn  Mn28  1  0.643056  0.214458  0.071075  0  .  1
   Mn  Mn29  1  0.928782  0.642710  0.213914  0  .  1
   O  O30  1  0.029546  0.676508  0.911760  0  .  1
   O  O31  1  0.192999  0.878540  0.978719  0  .  1
   O  O32  1  0.159728  0.386581  0.962211  0  .  1
   O  O33  1  0.033639  0.197415  0.899134  0  .  1
   O  O34  1  0.017150  0.672489  0.390809  0  .  1
   O  O35  1  0.176573  0.911962  0.470662  0  .  1
   O  O36  1  0.394978  0.945383  0.815088  0  .  1
   O  O37  1  0.109239  0.516870  0.672234  0  .  1
   O  O38  1  0.268939  0.756318  0.752204  0  .  1
   O  O39  1  0.458689  0.819585  0.623905  0  .  1
   O  O40  1  0.521019  0.693338  0.878105  0  .  1
   O  O41  1  0.235478  0.264702  0.735291  0  .  1
   O  O42  1  0.379774  0.977369  0.308345  0  .  1
   O  O43  1  0.172209  0.390831  0.483114  0  .  1
   O  O44  1  0.092441  0.550424  0.164049  0  .  1
   O  O45  1  0.399021  0.466484  0.802953  0  .  1
   O  O46  1  0.684654  0.894905  0.945722  0  .  1
   O  O47  1  0.256469  0.752175  0.230911  0  .  1
   O  O48  1  0.336370  0.592354  0.550569  0  .  1
   O  O49  1  0.050147  0.164143  0.407174  0  .  1
   O  O50  1  0.113412  0.037665  0.660125  0  .  1
   O  O51  1  0.587987  0.529458  0.676324  0  .  1
   O  O52  1  0.462238  0.339993  0.613225  0  .  1
   O  O53  1  0.874381  0.958122  0.819230  0  .  1
   O  O54  1  0.445181  0.815052  0.105144  0  .  1
   O  O55  1  0.319478  0.625590  0.041984  0  .  1
   O  O56  1  0.747752  0.769155  0.756256  0  .  1
   O  O57  1  0.302340  0.100674  0.533539  0  .  1
   O  O58  1  0.252146  0.231048  0.243769  0  .  1
   O  O59  1  0.126095  0.041945  0.180717  0  .  1
   O  O60  1  0.680635  0.373954  0.958117  0  .  1
   O  O61  1  0.554543  0.184934  0.894883  0  .  1
   O  O62  1  0.411760  0.470627  0.323549  0  .  1
   O  O63  1  0.537558  0.661809  0.387261  0  .  1
   O  O64  1  0.695334  0.898454  0.466130  0  .  1
   O  O65  1  0.315198  0.104997  0.054667  0  .  1
   O  O66  1  0.743662  0.247904  0.768844  0  .  1
   O  O67  1  0.663805  0.407609  0.449590  0  .  1
   O  O68  1  0.600825  0.533511  0.197510  0  .  1
   O  O69  1  0.949534  0.836124  0.592376  0  .  1
   O  O70  1  0.886516  0.962165  0.340331  0  .  1
   O  O71  1  0.478602  0.306996  0.121571  0  .  1
   O  O72  1  0.764789  0.735145  0.264942  0  .  1
   O  O73  1  0.621998  0.020772  0.693361  0  .  1
   O  O74  1  0.907536  0.449607  0.836107  0  .  1
   O  O75  1  0.827685  0.609391  0.516559  0  .  1
   O  O76  1  0.542091  0.180570  0.373752  0  .  1
   O  O77  1  0.890659  0.482762  0.327592  0  .  1
   O  O78  1  0.731553  0.243730  0.248050  0  .  1
   O  O79  1  0.604968  0.054803  0.185040  0  .  1
   O  O80  1  0.966311  0.802600  0.100780  0  .  1
   O  O81  1  0.983189  0.327597  0.609207  0  .  1
   O  O82  1  0.840273  0.613481  0.037811  0  .  1
   O  O83  1  0.823632  0.088204  0.529396  0  .  1
   O  O84  1  0.806719  0.121665  0.021012  0  .  1
   O  O85  1  0.970562  0.323503  0.088299  0  .  1
 
