#\#CIF1.1
##########################################################################
#               Crystallographic Information Format file 
#               Produced by PyCifRW module
# 
#  This is a CIF file.  CIF has been adopted by the International
#  Union of Crystallography as the standard for data archiving and 
#  transmission.
#
#  For information on this file format, follow the CIF links at
#  http://www.iucr.org
##########################################################################

data_LiMn2O3
_symmetry_space_group_name_H-M          'P 1'
_cell_length_a                          5.29228642666
_cell_length_b                          5.29228642666
_cell_length_c                          10.0429887243
_cell_angle_alpha                       85.3539547981
_cell_angle_beta                        94.6460452019
_cell_angle_gamma                       60.4856106187
_chemical_name_systematic               'Generated by pymatgen'
_symmetry_Int_Tables_number             1
_chemical_formula_structural            LiMn2O3
_chemical_formula_sum                   'Li4 Mn8 O12'
_cell_volume                            241.59872791
_cell_formula_units_Z                   4
loop_
  _symmetry_equiv_pos_site_id
  _symmetry_equiv_pos_as_xyz
   1  'x, y, z'
 
loop_
  _atom_site_type_symbol
  _atom_site_label
  _atom_site_symmetry_multiplicity
  _atom_site_fract_x
  _atom_site_fract_y
  _atom_site_fract_z
  _atom_site_attached_hydrogens
  _atom_site_B_iso_or_equiv
  _atom_site_occupancy
   Li  Li1  1  0.417534  0.417534  0.750000  0  .  1
   Li  Li2  1  0.751550  0.751550  0.750000  0  .  1
   Li  Li3  1  0.582466  0.582466  0.250000  0  .  1
   Li  Li4  1  0.248450  0.248450  0.250000  0  .  1
   Mn  Mn5  1  0.171696  0.657290  0.999980  0  .  1
   Mn  Mn6  1  0.342710  0.828304  0.499980  0  .  1
   Mn  Mn7  1  0.000000  0.500000  0.500000  0  .  1
   Mn  Mn8  1  0.080383  0.080383  0.750000  0  .  1
   Mn  Mn9  1  0.919617  0.919617  0.250000  0  .  1
   Mn  Mn10  1  0.657290  0.171696  0.500020  0  .  1
   Mn  Mn11  1  0.500000  0.000000  0.000000  0  .  1
   Mn  Mn12  1  0.828304  0.342710  0.000020  0  .  1
   O  O13  1  0.041911  0.800814  0.624195  0  .  1
   O  O14  1  0.118806  0.366332  0.876288  0  .  1
   O  O15  1  0.199186  0.958089  0.124195  0  .  1
   O  O16  1  0.442358  0.717219  0.876053  0  .  1
   O  O17  1  0.633668  0.881194  0.376288  0  .  1
   O  O18  1  0.282781  0.557642  0.376053  0  .  1
   O  O19  1  0.717219  0.442358  0.623947  0  .  1
   O  O20  1  0.366332  0.118806  0.623712  0  .  1
   O  O21  1  0.557642  0.282781  0.123947  0  .  1
   O  O22  1  0.800814  0.041911  0.875805  0  .  1
   O  O23  1  0.881194  0.633668  0.123712  0  .  1
   O  O24  1  0.958089  0.199186  0.375805  0  .  1
 
