#\#CIF1.1
##########################################################################
#               Crystallographic Information Format file 
#               Produced by PyCifRW module
# 
#  This is a CIF file.  CIF has been adopted by the International
#  Union of Crystallography as the standard for data archiving and 
#  transmission.
#
#  For information on this file format, follow the CIF links at
#  http://www.iucr.org
##########################################################################

data_LiMn16O32
_symmetry_space_group_name_H-M          'P 1'
_cell_length_a                          5.88925788336
_cell_length_b                          5.78672198047
_cell_length_c                          23.4416952965
_cell_angle_alpha                       60.41515113
_cell_angle_beta                        58.7038927556
_cell_angle_gamma                       60.5742842957
_chemical_name_systematic               'Generated by pymatgen'
_symmetry_Int_Tables_number             1
_chemical_formula_structural            LiMn16O32
_chemical_formula_sum                   'Li1 Mn16 O32'
_cell_volume                            563.218151095
_cell_formula_units_Z                   1
loop_
  _symmetry_equiv_pos_site_id
  _symmetry_equiv_pos_as_xyz
   1  'x, y, z'
 
loop_
  _atom_site_type_symbol
  _atom_site_label
  _atom_site_symmetry_multiplicity
  _atom_site_fract_x
  _atom_site_fract_y
  _atom_site_fract_z
  _atom_site_attached_hydrogens
  _atom_site_B_iso_or_equiv
  _atom_site_occupancy
   Li  Li1  1  0.863218  0.872669  0.972861  0  .  1
   Mn  Mn2  1  0.480717  0.499338  0.005152  0  .  1
   Mn  Mn3  1  0.498743  0.005627  0.123880  0  .  1
   Mn  Mn4  1  0.498743  0.500110  0.123880  0  .  1
   Mn  Mn5  1  0.493751  0.002799  0.377015  0  .  1
   Mn  Mn6  1  0.471608  0.503674  0.255261  0  .  1
   Mn  Mn7  1  0.493751  0.495389  0.377015  0  .  1
   Mn  Mn8  1  0.009572  0.499877  0.622669  0  .  1
   Mn  Mn9  1  0.998382  0.997784  0.376513  0  .  1
   Mn  Mn10  1  0.533050  0.492916  0.495279  0  .  1
   Mn  Mn11  1  0.505721  0.999759  0.623766  0  .  1
   Mn  Mn12  1  0.849353  0.887117  0.219103  0  .  1
   Mn  Mn13  1  0.505721  0.499456  0.623766  0  .  1
   Mn  Mn14  1  0.999197  0.501624  0.874389  0  .  1
   Mn  Mn15  1  0.503413  0.501164  0.748565  0  .  1
   Mn  Mn16  1  0.500059  0.001692  0.874449  0  .  1
   Mn  Mn17  1  0.500059  0.500455  0.874449  0  .  1
   O  O18  1  0.302169  0.237746  0.061443  0  .  1
   O  O19  1  0.288169  0.252749  0.176583  0  .  1
   O  O20  1  0.302169  0.714313  0.061443  0  .  1
   O  O21  1  0.706992  0.269438  0.063533  0  .  1
   O  O22  1  0.271080  0.222411  0.320622  0  .  1
   O  O23  1  0.271530  0.741977  0.186129  0  .  1
   O  O24  1  0.701472  0.288638  0.189200  0  .  1
   O  O25  1  0.287655  0.245841  0.430166  0  .  1
   O  O26  1  0.711637  0.747359  0.073411  0  .  1
   O  O27  1  0.271080  0.724020  0.320622  0  .  1
   O  O28  1  0.701472  0.753091  0.189200  0  .  1
   O  O29  1  0.710236  0.259515  0.317683  0  .  1
   O  O30  1  0.281243  0.258447  0.565262  0  .  1
   O  O31  1  0.289845  0.735621  0.434728  0  .  1
   O  O32  1  0.724111  0.747617  0.320164  0  .  1
   O  O33  1  0.723314  0.275629  0.431872  0  .  1
   O  O34  1  0.281243  0.699263  0.565262  0  .  1
   O  O35  1  0.262940  0.268620  0.674955  0  .  1
   O  O36  1  0.723314  0.773569  0.431872  0  .  1
   O  O37  1  0.716857  0.263543  0.564015  0  .  1
   O  O38  1  0.299553  0.731196  0.684514  0  .  1
   O  O39  1  0.270276  0.258073  0.816772  0  .  1
   O  O40  1  0.734813  0.296779  0.682030  0  .  1
   O  O41  1  0.747352  0.731470  0.572427  0  .  1
   O  O42  1  0.257354  0.269829  0.925747  0  .  1
   O  O43  1  0.270276  0.704561  0.816772  0  .  1
   O  O44  1  0.704803  0.268602  0.814498  0  .  1
   O  O45  1  0.734813  0.740288  0.682030  0  .  1
   O  O46  1  0.287458  0.735988  0.935142  0  .  1
   O  O47  1  0.740551  0.732598  0.823563  0  .  1
   O  O48  1  0.734584  0.294050  0.931414  0  .  1
   O  O49  1  0.734584  0.745708  0.931414  0  .  1
 
