#\#CIF1.1
##########################################################################
#               Crystallographic Information Format file 
#               Produced by PyCifRW module
# 
#  This is a CIF file.  CIF has been adopted by the International
#  Union of Crystallography as the standard for data archiving and 
#  transmission.
#
#  For information on this file format, follow the CIF links at
#  http://www.iucr.org
##########################################################################

data_LiMn7O12
_symmetry_space_group_name_H-M          'P 1'
_cell_length_a                          5.17499429116
_cell_length_b                          5.17499458705
_cell_length_c                          9.98316721978
_cell_angle_alpha                       83.9058395774
_cell_angle_beta                        96.0941609869
_cell_angle_gamma                       60.5722974738
_chemical_name_systematic               'Generated by pymatgen'
_symmetry_Int_Tables_number             1
_chemical_formula_structural            LiMn7O12
_chemical_formula_sum                   'Li1 Mn7 O12'
_cell_volume                            227.641933898
_cell_formula_units_Z                   1
loop_
  _symmetry_equiv_pos_site_id
  _symmetry_equiv_pos_as_xyz
   1  'x, y, z'
 
loop_
  _atom_site_type_symbol
  _atom_site_label
  _atom_site_symmetry_multiplicity
  _atom_site_fract_x
  _atom_site_fract_y
  _atom_site_fract_z
  _atom_site_attached_hydrogens
  _atom_site_B_iso_or_equiv
  _atom_site_occupancy
   Li  Li1  1  0.923819  0.923819  0.750000  0  .  1
   Mn  Mn2  1  0.078385  0.078385  0.250000  0  .  1
   Mn  Mn3  1  0.253735  0.253735  0.750000  0  .  1
   Mn  Mn4  1  0.414216  0.414216  0.250000  0  .  1
   Mn  Mn5  1  0.577434  0.577434  0.750000  0  .  1
   Mn  Mn6  1  0.518088  0.001280  0.514563  0  .  1
   Mn  Mn7  1  0.745025  0.745025  0.250000  0  .  1
   Mn  Mn8  1  0.001280  0.518088  0.985437  0  .  1
   O  O9  1  0.180647  0.337781  0.367903  0  .  1
   O  O10  1  0.038898  0.758134  0.144195  0  .  1
   O  O11  1  0.291094  0.531107  0.851070  0  .  1
   O  O12  1  0.337781  0.180647  0.132097  0  .  1
   O  O13  1  0.531107  0.291094  0.648930  0  .  1
   O  O14  1  0.254541  0.959209  0.639307  0  .  1
   O  O15  1  0.758134  0.038898  0.355805  0  .  1
   O  O16  1  0.446915  0.721825  0.346128  0  .  1
   O  O17  1  0.640098  0.828084  0.867100  0  .  1
   O  O18  1  0.721825  0.446915  0.153872  0  .  1
   O  O19  1  0.959209  0.254541  0.860693  0  .  1
   O  O20  1  0.828084  0.640098  0.632900  0  .  1
 
