#\#CIF1.1
##########################################################################
#               Crystallographic Information Format file 
#               Produced by PyCifRW module
# 
#  This is a CIF file.  CIF has been adopted by the International
#  Union of Crystallography as the standard for data archiving and 
#  transmission.
#
#  For information on this file format, follow the CIF links at
#  http://www.iucr.org
##########################################################################

data_LiMn12O24
_symmetry_space_group_name_H-M          'P 1'
_cell_length_a                          11.7095042368
_cell_length_b                          21.1233736247
_cell_length_c                          15.5105445435
_cell_angle_alpha                       19.3549092478
_cell_angle_beta                        55.4489247809
_cell_angle_gamma                       46.088971555
_chemical_name_systematic               'Generated by pymatgen'
_symmetry_Int_Tables_number             1
_chemical_formula_structural            LiMn12O24
_chemical_formula_sum                   'Li2 Mn24 O48'
_cell_volume                            852.708017165
_cell_formula_units_Z                   2
loop_
  _symmetry_equiv_pos_site_id
  _symmetry_equiv_pos_as_xyz
   1  'x, y, z'
 
loop_
  _atom_site_type_symbol
  _atom_site_label
  _atom_site_symmetry_multiplicity
  _atom_site_fract_x
  _atom_site_fract_y
  _atom_site_fract_z
  _atom_site_attached_hydrogens
  _atom_site_B_iso_or_equiv
  _atom_site_occupancy
   Li  Li1  1  0.250015  0.625214  0.124794  0  .  1
   Li  Li2  1  0.749988  0.374781  0.875214  0  .  1
   Mn  Mn3  1  0.167769  0.165598  0.001313  0  .  1
   Mn  Mn4  1  0.250505  0.000745  0.498038  0  .  1
   Mn  Mn5  1  0.166507  0.168213  0.498067  0  .  1
   Mn  Mn6  1  0.666508  0.166200  0.000075  0  .  1
   Mn  Mn7  1  0.083090  0.332624  0.500456  0  .  1
   Mn  Mn8  1  0.416919  0.165002  0.501901  0  .  1
   Mn  Mn9  1  0.500041  0.499852  0.000186  0  .  1
   Mn  Mn10  1  0.749437  0.999360  0.501867  0  .  1
   Mn  Mn11  1  0.249412  0.499308  0.501926  0  .  1
   Mn  Mn12  1  0.667748  0.165022  0.501894  0  .  1
   Mn  Mn13  1  0.333483  0.833836  0.999876  0  .  1
   Mn  Mn14  1  0.584143  0.332569  0.501140  0  .  1
   Mn  Mn15  1  0.500019  0.499995  0.500007  0  .  1
   Mn  Mn16  1  0.084127  0.831729  0.501994  0  .  1
   Mn  Mn17  1  0.915856  0.168293  0.497984  0  .  1
   Mn  Mn18  1  -0.000011  0.500015  -0.000008  0  .  1
   Mn  Mn19  1  0.415884  0.667422  0.498858  0  .  1
   Mn  Mn20  1  0.750554  0.500671  0.498103  0  .  1
   Mn  Mn21  1  0.332214  0.835012  0.498039  0  .  1
   Mn  Mn22  1  0.832207  0.834436  0.998650  0  .  1
   Mn  Mn23  1  0.000016  0.500000  0.500018  0  .  1
   Mn  Mn24  1  0.583119  0.835043  0.498015  0  .  1
   Mn  Mn25  1  0.916928  0.667363  0.499531  0  .  1
   Mn  Mn26  1  0.833500  0.831776  0.501950  0  .  1
   O  O27  1  0.103042  0.058460  0.264732  0  .  1
   O  O28  1  0.010148  0.244789  0.265613  0  .  1
   O  O29  1  0.343215  0.048564  0.294847  0  .  1
   O  O30  1  0.229427  0.244953  0.265347  0  .  1
   O  O31  1  0.103789  0.087627  0.735483  0  .  1
   O  O32  1  0.176817  0.381287  0.295615  0  .  1
   O  O33  1  0.603784  0.058600  0.264498  0  .  1
   O  O34  1  0.066178  0.580051  0.259624  0  .  1
   O  O35  1  0.323177  0.088728  0.734378  0  .  1
   O  O36  1  0.510534  0.243288  0.267560  0  .  1
   O  O37  1  0.010544  0.713947  0.296903  0  .  1
   O  O38  1  0.842310  0.052278  0.290067  0  .  1
   O  O39  1  0.433831  0.391764  0.268536  0  .  1
   O  O40  1  0.229847  0.275208  0.735561  0  .  1
   O  O41  1  0.729826  0.243586  0.267186  0  .  1
   O  O42  1  0.156791  0.421793  0.734797  0  .  1
   O  O43  1  0.342311  0.578422  0.263929  0  .  1
   O  O44  1  0.603048  0.089063  0.734143  0  .  1
   O  O45  1  0.676685  0.381315  0.295659  0  .  1
   O  O46  1  0.270577  0.724415  0.265292  0  .  1
   O  O47  1  0.489862  0.285879  0.703729  0  .  1
   O  O48  1  0.062749  0.608877  0.734760  0  .  1
   O  O49  1  0.823302  0.088636  0.734404  0  .  1
   O  O50  1  0.562744  0.578371  0.265266  0  .  1
   O  O51  1  0.176699  0.911361  0.265599  0  .  1
   O  O52  1  0.437259  0.421624  0.734735  0  .  1
   O  O53  1  0.510148  0.714106  0.296287  0  .  1
   O  O54  1  0.937253  0.391110  0.265259  0  .  1
   O  O55  1  0.729421  0.275590  0.734702  0  .  1
   O  O56  1  0.323308  0.618689  0.704345  0  .  1
   O  O57  1  0.657690  0.421572  0.736077  0  .  1
   O  O58  1  0.396954  0.910921  0.265886  0  .  1
   O  O59  1  0.843222  0.578201  0.265205  0  .  1
   O  O60  1  0.270137  0.756446  0.732789  0  .  1
   O  O61  1  0.770148  0.724798  0.264430  0  .  1
   O  O62  1  0.157693  0.947708  0.709949  0  .  1
   O  O63  1  0.989465  0.286018  0.703135  0  .  1
   O  O64  1  0.566177  0.608257  0.731419  0  .  1
   O  O65  1  0.489468  0.756749  0.732405  0  .  1
   O  O66  1  0.676819  0.911261  0.265644  0  .  1
   O  O67  1  0.933831  0.419948  0.740371  0  .  1
   O  O68  1  0.823179  0.618708  0.704398  0  .  1
   O  O69  1  0.396214  0.941388  0.735519  0  .  1
   O  O70  1  0.896216  0.912372  0.264522  0  .  1
   O  O71  1  0.770582  0.755020  0.734682  0  .  1
   O  O72  1  0.656779  0.951444  0.705150  0  .  1
   O  O73  1  0.989865  0.755192  0.734406  0  .  1
   O  O74  1  0.896960  0.941537  0.735272  0  .  1
 
