#\#CIF1.1
##########################################################################
#               Crystallographic Information Format file 
#               Produced by PyCifRW module
# 
#  This is a CIF file.  CIF has been adopted by the International
#  Union of Crystallography as the standard for data archiving and 
#  transmission.
#
#  For information on this file format, follow the CIF links at
#  http://www.iucr.org
##########################################################################

data_LiNi9S10
_symmetry_space_group_name_H-M          'P 1'
_cell_length_a                          5.9663175415
_cell_length_b                          7.92710915719
_cell_length_c                          6.24901175249
_cell_angle_alpha                       78.8704651239
_cell_angle_beta                        90.0571076773
_cell_angle_gamma                       68.1805611846
_chemical_name_systematic               'Generated by pymatgen'
_symmetry_Int_Tables_number             1
_chemical_formula_structural            LiNi9S10
_chemical_formula_sum                   'Li1 Ni9 S10'
_cell_volume                            268.357795729
_cell_formula_units_Z                   1
loop_
  _symmetry_equiv_pos_site_id
  _symmetry_equiv_pos_as_xyz
   1  'x, y, z'
 
loop_
  _atom_site_type_symbol
  _atom_site_label
  _atom_site_symmetry_multiplicity
  _atom_site_fract_x
  _atom_site_fract_y
  _atom_site_fract_z
  _atom_site_attached_hydrogens
  _atom_site_B_iso_or_equiv
  _atom_site_occupancy
   Li  Li1  1  0.299931  0.400044  0.100042  0  .  1
   Ni  Ni2  1  0.396885  0.201872  0.807164  0  .  1
   Ni  Ni3  1  0.495072  0.006820  0.496054  0  .  1
   Ni  Ni4  1  0.700821  0.594302  0.905460  0  .  1
   Ni  Ni5  1  0.899293  0.205625  0.294584  0  .  1
   Ni  Ni6  1  0.799967  0.400003  0.599932  0  .  1
   Ni  Ni7  1  0.996778  0.000343  0.996727  0  .  1
   Ni  Ni8  1  0.104987  0.793122  0.703950  0  .  1
   Ni  Ni9  1  0.203116  0.598202  0.392901  0  .  1
   Ni  Ni10  1  0.603293  0.799590  0.203361  0  .  1
   S  S11  1  0.778500  0.096542  0.643097  0  .  1
   S  S12  1  0.008089  0.292067  0.945641  0  .  1
   S  S13  1  0.176175  0.303067  0.466147  0  .  1
   S  S14  1  0.619641  0.093896  0.146196  0  .  1
   S  S15  1  0.423921  0.496980  0.733916  0  .  1
   S  S16  1  0.380660  0.898715  0.849634  0  .  1
   S  S17  1  0.591903  0.507903  0.254320  0  .  1
   S  S18  1  0.821575  0.703333  0.556880  0  .  1
   S  S19  1  0.980363  0.706065  0.053765  0  .  1
   S  S20  1  0.219331  0.901410  0.350332  0  .  1
 
