#\#CIF1.1
##########################################################################
#               Crystallographic Information Format file 
#               Produced by PyCifRW module
# 
#  This is a CIF file.  CIF has been adopted by the International
#  Union of Crystallography as the standard for data archiving and 
#  transmission.
#
#  For information on this file format, follow the CIF links at
#  http://www.iucr.org
##########################################################################

data_LiNi3O4
_symmetry_space_group_name_H-M          'P 1'
_cell_length_a                          5.13158037111
_cell_length_b                          10.2081792741
_cell_length_c                          9.78042641302
_cell_angle_alpha                       16.6451675625
_cell_angle_beta                        29.5358292909
_cell_angle_gamma                       33.530693909
_chemical_name_systematic               'Generated by pymatgen'
_symmetry_Int_Tables_number             1
_chemical_formula_structural            LiNi3O4
_chemical_formula_sum                   'Li1 Ni3 O4'
_cell_volume                            72.3460876482
_cell_formula_units_Z                   1
loop_
  _symmetry_equiv_pos_site_id
  _symmetry_equiv_pos_as_xyz
   1  'x, y, z'
 
loop_
  _atom_site_type_symbol
  _atom_site_label
  _atom_site_symmetry_multiplicity
  _atom_site_fract_x
  _atom_site_fract_y
  _atom_site_fract_z
  _atom_site_attached_hydrogens
  _atom_site_B_iso_or_equiv
  _atom_site_occupancy
   Li  Li1  1  0.500000  0.500000  0.500000  0  .  1
   Ni  Ni2  1  0.000000  0.000000  0.000000  0  .  1
   Ni  Ni3  1  0.500000  0.000000  0.500000  0  .  1
   Ni  Ni4  1  0.000000  0.500000  0.000000  0  .  1
   O  O5  1  0.231395  0.000000  0.268284  0  .  1
   O  O6  1  0.247821  0.500000  0.250783  0  .  1
   O  O7  1  0.768605  0.000000  0.731716  0  .  1
   O  O8  1  0.752179  0.500000  0.749217  0  .  1
 
