#\#CIF1.1
##########################################################################
#               Crystallographic Information Format file 
#               Produced by PyCifRW module
# 
#  This is a CIF file.  CIF has been adopted by the International
#  Union of Crystallography as the standard for data archiving and 
#  transmission.
#
#  For information on this file format, follow the CIF links at
#  http://www.iucr.org
##########################################################################

data_LiTiO2
_symmetry_space_group_name_H-M          'P 1'
_cell_length_a                          4.98220313021
_cell_length_b                          2.87683695204
_cell_length_c                          10.2287683524
_cell_angle_alpha                       90.0022582945
_cell_angle_beta                        90.000343082
_cell_angle_gamma                       30.0025755466
_chemical_name_systematic               'Generated by pymatgen'
_symmetry_Int_Tables_number             1
_chemical_formula_structural            LiTiO2
_chemical_formula_sum                   'Li2 Ti2 O4'
_cell_volume                            73.310104283
_cell_formula_units_Z                   2
loop_
  _symmetry_equiv_pos_site_id
  _symmetry_equiv_pos_as_xyz
   1  'x, y, z'
 
loop_
  _atom_site_type_symbol
  _atom_site_label
  _atom_site_symmetry_multiplicity
  _atom_site_fract_x
  _atom_site_fract_y
  _atom_site_fract_z
  _atom_site_attached_hydrogens
  _atom_site_B_iso_or_equiv
  _atom_site_occupancy
   Li  Li1  1  0.000193  0.000389  0.999720  0  .  1
   Li  Li2  1  0.000241  0.000660  0.500141  0  .  1
   Ti  Ti3  1  0.667188  0.999557  0.249982  0  .  1
   Ti  Ti4  1  0.332895  0.001485  0.749932  0  .  1
   O  O5  1  0.666430  0.001431  0.870892  0  .  1
   O  O6  1  0.666338  0.000804  0.628986  0  .  1
   O  O7  1  0.333945  0.999530  0.129031  0  .  1
   O  O8  1  0.333968  0.998750  0.370938  0  .  1
 
