#\#CIF1.1
##########################################################################
#               Crystallographic Information Format file 
#               Produced by PyCifRW module
# 
#  This is a CIF file.  CIF has been adopted by the International
#  Union of Crystallography as the standard for data archiving and 
#  transmission.
#
#  For information on this file format, follow the CIF links at
#  http://www.iucr.org
##########################################################################

data_LiTi11O20
_symmetry_space_group_name_H-M          'P 1'
_cell_length_a                          7.26148454986
_cell_length_b                          7.69494621573
_cell_length_c                          13.2464534791
_cell_angle_alpha                       90.4243786366
_cell_angle_beta                        92.734538236
_cell_angle_gamma                       104.090493379
_chemical_name_systematic               'Generated by pymatgen'
_symmetry_Int_Tables_number             1
_chemical_formula_structural            LiTi11O20
_chemical_formula_sum                   'Li2 Ti22 O40'
_cell_volume                            716.942965162
_cell_formula_units_Z                   2
loop_
  _symmetry_equiv_pos_site_id
  _symmetry_equiv_pos_as_xyz
   1  'x, y, z'
 
loop_
  _atom_site_type_symbol
  _atom_site_label
  _atom_site_symmetry_multiplicity
  _atom_site_fract_x
  _atom_site_fract_y
  _atom_site_fract_z
  _atom_site_attached_hydrogens
  _atom_site_B_iso_or_equiv
  _atom_site_occupancy
   Li  Li1  1  0.393252  0.949152  0.778371  0  .  1
   Li  Li2  1  0.606748  0.050848  0.221629  0  .  1
   Ti  Ti3  1  0.012686  0.928680  0.201154  0  .  1
   Ti  Ti4  1  0.037169  0.435458  0.709011  0  .  1
   Ti  Ti5  1  0.003624  0.298403  0.126681  0  .  1
   Ti  Ti6  1  0.006950  0.207012  0.369312  0  .  1
   Ti  Ti7  1  0.320361  0.942623  0.426129  0  .  1
   Ti  Ti8  1  0.311940  0.713754  0.080888  0  .  1
   Ti  Ti9  1  0.325363  0.574024  0.513804  0  .  1
   Ti  Ti10  1  0.336351  0.433841  0.927036  0  .  1
   Ti  Ti11  1  0.356571  0.631814  0.288079  0  .  1
   Ti  Ti12  1  0.302916  0.203729  0.586324  0  .  1
   Ti  Ti13  1  0.320855  0.082800  0.007128  0  .  1
   Ti  Ti14  1  0.679145  0.917200  0.992872  0  .  1
   Ti  Ti15  1  0.697084  0.796271  0.413676  0  .  1
   Ti  Ti16  1  0.643429  0.368186  0.711921  0  .  1
   Ti  Ti17  1  0.663649  0.566159  0.072964  0  .  1
   Ti  Ti18  1  0.674637  0.425976  0.486196  0  .  1
   Ti  Ti19  1  0.688060  0.286246  0.919112  0  .  1
   Ti  Ti20  1  0.679639  0.057377  0.573871  0  .  1
   Ti  Ti21  1  0.993050  0.792988  0.630688  0  .  1
   Ti  Ti22  1  0.996376  0.701597  0.873319  0  .  1
   Ti  Ti23  1  0.962831  0.564542  0.290989  0  .  1
   Ti  Ti24  1  0.987314  0.071320  0.798846  0  .  1
   O  O25  1  0.119958  0.883440  0.766279  0  .  1
   O  O26  1  0.172000  0.823943  0.976752  0  .  1
   O  O27  1  0.171338  0.954327  0.549102  0  .  1
   O  O28  1  0.163034  0.739720  0.201522  0  .  1
   O  O29  1  0.161117  0.540921  0.834902  0  .  1
   O  O30  1  0.165076  0.617158  0.620533  0  .  1
   O  O31  1  0.185699  0.678703  0.403966  0  .  1
   O  O32  1  0.143344  0.404172  0.267993  0  .  1
   O  O33  1  0.151702  0.236532  0.695101  0  .  1
   O  O34  1  0.173937  0.178977  0.901784  0  .  1
   O  O35  1  0.180067  0.327331  0.477976  0  .  1
   O  O36  1  0.175583  0.462700  0.046711  0  .  1
   O  O37  1  0.163731  0.038314  0.335821  0  .  1
   O  O38  1  0.161999  0.113106  0.118837  0  .  1
   O  O39  1  0.484611  0.953559  0.094508  0  .  1
   O  O40  1  0.496752  0.679716  0.970350  0  .  1
   O  O41  1  0.498974  0.882554  0.328526  0  .  1
   O  O42  1  0.503334  0.826652  0.524839  0  .  1
   O  O43  1  0.490130  0.453624  0.603520  0  .  1
   O  O44  1  0.491224  0.604167  0.172907  0  .  1
   O  O45  1  0.508776  0.395833  0.827093  0  .  1
   O  O46  1  0.509870  0.546376  0.396480  0  .  1
   O  O47  1  0.496666  0.173348  0.475161  0  .  1
   O  O48  1  0.501026  0.117446  0.671474  0  .  1
   O  O49  1  0.503248  0.320284  0.029650  0  .  1
   O  O50  1  0.515389  0.046441  0.905492  0  .  1
   O  O51  1  0.838001  0.886894  0.881163  0  .  1
   O  O52  1  0.836269  0.961686  0.664179  0  .  1
   O  O53  1  0.824417  0.537300  0.953289  0  .  1
   O  O54  1  0.819933  0.672669  0.522024  0  .  1
   O  O55  1  0.826063  0.821023  0.098216  0  .  1
   O  O56  1  0.848298  0.763468  0.304899  0  .  1
   O  O57  1  0.856656  0.595828  0.732007  0  .  1
   O  O58  1  0.814301  0.321297  0.596034  0  .  1
   O  O59  1  0.834924  0.382842  0.379467  0  .  1
   O  O60  1  0.838883  0.459079  0.165098  0  .  1
   O  O61  1  0.836966  0.260280  0.798478  0  .  1
   O  O62  1  0.828662  0.045673  0.450898  0  .  1
   O  O63  1  0.828000  0.176057  0.023248  0  .  1
   O  O64  1  0.880042  0.116560  0.233721  0  .  1
 
