#\#CIF1.1
##########################################################################
#               Crystallographic Information Format file 
#               Produced by PyCifRW module
# 
#  This is a CIF file.  CIF has been adopted by the International
#  Union of Crystallography as the standard for data archiving and 
#  transmission.
#
#  For information on this file format, follow the CIF links at
#  http://www.iucr.org
##########################################################################

data_LiTi3O6
_symmetry_space_group_name_H-M          'P 1'
_cell_length_a                          7.27377174761
_cell_length_b                          7.27377174761
_cell_length_c                          5.00309967884
_cell_angle_alpha                       87.5481965021
_cell_angle_beta                        92.4518034979
_cell_angle_gamma                       156.498721806
_chemical_name_systematic               'Generated by pymatgen'
_symmetry_Int_Tables_number             1
_chemical_formula_structural            LiTi3O6
_chemical_formula_sum                   'Li1 Ti3 O6'
_cell_volume                            105.454587461
_cell_formula_units_Z                   1
loop_
  _symmetry_equiv_pos_site_id
  _symmetry_equiv_pos_as_xyz
   1  'x, y, z'
 
loop_
  _atom_site_type_symbol
  _atom_site_label
  _atom_site_symmetry_multiplicity
  _atom_site_fract_x
  _atom_site_fract_y
  _atom_site_fract_z
  _atom_site_attached_hydrogens
  _atom_site_B_iso_or_equiv
  _atom_site_occupancy
   Li  Li1  1  0.786195  0.213805  0.935104  0  .  1
   Ti  Ti2  1  0.347973  0.652027  0.469729  0  .  1
   Ti  Ti3  1  0.003635  0.996365  0.999875  0  .  1
   Ti  Ti4  1  0.653241  0.346759  0.520693  0  .  1
   O  O5  1  0.095638  0.904362  0.313701  0  .  1
   O  O6  1  0.231347  0.768653  0.709966  0  .  1
   O  O7  1  0.430379  0.569621  0.175516  0  .  1
   O  O8  1  0.567875  0.432125  0.816211  0  .  1
   O  O9  1  0.771414  0.228586  0.302975  0  .  1
   O  O10  1  0.900105  0.099895  0.695931  0  .  1
 
