#\#CIF1.1
##########################################################################
#               Crystallographic Information Format file 
#               Produced by PyCifRW module
# 
#  This is a CIF file.  CIF has been adopted by the International
#  Union of Crystallography as the standard for data archiving and 
#  transmission.
#
#  For information on this file format, follow the CIF links at
#  http://www.iucr.org
##########################################################################

data_LiTi8O16
_symmetry_space_group_name_H-M          'P 1'
_cell_length_a                          7.79155855099
_cell_length_b                          9.62083912
_cell_length_c                          7.79155855099
_cell_angle_alpha                       90.0
_cell_angle_beta                        99.8717033027
_cell_angle_gamma                       90.0
_chemical_name_systematic               'Generated by pymatgen'
_symmetry_Int_Tables_number             1
_chemical_formula_structural            LiTi8O16
_chemical_formula_sum                   'Li2 Ti16 O32'
_cell_volume                            575.417994862
_cell_formula_units_Z                   2
loop_
  _symmetry_equiv_pos_site_id
  _symmetry_equiv_pos_as_xyz
   1  'x, y, z'
 
loop_
  _atom_site_type_symbol
  _atom_site_label
  _atom_site_symmetry_multiplicity
  _atom_site_fract_x
  _atom_site_fract_y
  _atom_site_fract_z
  _atom_site_attached_hydrogens
  _atom_site_B_iso_or_equiv
  _atom_site_occupancy
   Li  Li1  1  0.654112  0.456383  0.279112  0  .  1
   Li  Li2  1  0.970888  0.956383  0.595888  0  .  1
   Ti  Ti3  1  0.287562  0.365287  0.165621  0  .  1
   Ti  Ti4  1  0.047008  0.356321  0.421000  0  .  1
   Ti  Ti5  1  0.444667  0.644161  0.069667  0  .  1
   Ti  Ti6  1  0.209005  0.636346  0.335984  0  .  1
   Ti  Ti7  1  0.664714  0.135675  0.289714  0  .  1
   Ti  Ti8  1  0.914016  0.136346  0.040995  0  .  1
   Ti  Ti9  1  0.415995  0.136346  0.539016  0  .  1
   Ti  Ti10  1  0.180333  0.144161  0.805333  0  .  1
   Ti  Ti11  1  0.829000  0.856321  0.202992  0  .  1
   Ti  Ti12  1  0.337438  0.865287  0.709379  0  .  1
   Ti  Ti13  1  0.084379  0.865287  0.962438  0  .  1
   Ti  Ti14  1  0.577992  0.856321  0.454000  0  .  1
   Ti  Ti15  1  0.796000  0.356321  0.672008  0  .  1
   Ti  Ti16  1  0.540621  0.365287  0.912562  0  .  1
   Ti  Ti17  1  0.960286  0.635675  0.585286  0  .  1
   Ti  Ti18  1  0.710984  0.636346  0.834005  0  .  1
   O  O19  1  0.148085  0.225853  0.025914  0  .  1
   O  O20  1  0.033289  0.964966  0.158922  0  .  1
   O  O21  1  0.091078  0.464966  0.216711  0  .  1
   O  O22  1  0.224086  0.725853  0.101915  0  .  1
   O  O23  1  0.530744  0.283404  0.155744  0  .  1
   O  O24  1  0.272687  0.272151  0.396677  0  .  1
   O  O25  1  0.024930  0.271683  0.649930  0  .  1
   O  O26  1  0.160787  0.534680  0.536930  0  .  1
   O  O27  1  0.658667  0.535287  0.040844  0  .  1
   O  O28  1  0.415844  0.535287  0.283667  0  .  1
   O  O29  1  0.464213  0.034680  0.338070  0  .  1
   O  O30  1  0.209156  0.035287  0.591333  0  .  1
   O  O31  1  0.713070  0.034680  0.089213  0  .  1
   O  O32  1  0.600070  0.771683  0.225070  0  .  1
   O  O33  1  0.352313  0.772151  0.478323  0  .  1
   O  O34  1  0.094256  0.783404  0.719256  0  .  1
   O  O35  1  0.896448  0.228415  0.271485  0  .  1
   O  O36  1  0.400914  0.225853  0.773085  0  .  1
   O  O37  1  0.646485  0.228415  0.521448  0  .  1
   O  O38  1  0.533922  0.964966  0.658289  0  .  1
   O  O39  1  0.288969  0.964859  0.913969  0  .  1
   O  O40  1  0.785680  0.963630  0.410680  0  .  1
   O  O41  1  0.591711  0.464966  0.716078  0  .  1
   O  O42  1  0.336031  0.464859  0.961031  0  .  1
   O  O43  1  0.839320  0.463630  0.464320  0  .  1
   O  O44  1  0.728552  0.728415  0.603515  0  .  1
   O  O45  1  0.476915  0.725853  0.849086  0  .  1
   O  O46  1  0.978515  0.728415  0.353552  0  .  1
   O  O47  1  0.771677  0.272151  0.897687  0  .  1
   O  O48  1  0.911930  0.534680  0.785787  0  .  1
   O  O49  1  0.966333  0.035287  0.834156  0  .  1
   O  O50  1  0.853323  0.772151  0.977313  0  .  1
 
