#\#CIF1.1
##########################################################################
#               Crystallographic Information Format file 
#               Produced by PyCifRW module
# 
#  This is a CIF file.  CIF has been adopted by the International
#  Union of Crystallography as the standard for data archiving and 
#  transmission.
#
#  For information on this file format, follow the CIF links at
#  http://www.iucr.org
##########################################################################

data_LiTi2O4
_symmetry_space_group_name_H-M          'P 1'
_cell_length_a                          2.93089463
_cell_length_b                          4.83256846011
_cell_length_c                          4.78894343933
_cell_angle_alpha                       90.9474448272
_cell_angle_beta                        90.0
_cell_angle_gamma                       90.0
_chemical_name_systematic               'Generated by pymatgen'
_symmetry_Int_Tables_number             1
_chemical_formula_structural            LiTi2O4
_chemical_formula_sum                   'Li1 Ti2 O4'
_cell_volume                            67.82011917
_cell_formula_units_Z                   1
loop_
  _symmetry_equiv_pos_site_id
  _symmetry_equiv_pos_as_xyz
   1  'x, y, z'
 
loop_
  _atom_site_type_symbol
  _atom_site_label
  _atom_site_symmetry_multiplicity
  _atom_site_fract_x
  _atom_site_fract_y
  _atom_site_fract_z
  _atom_site_attached_hydrogens
  _atom_site_B_iso_or_equiv
  _atom_site_occupancy
   Li  Li1  1  0.500000  0.000000  0.500000  0  .  1
   Ti  Ti2  1  0.000000  0.000000  0.000000  0  .  1
   Ti  Ti3  1  0.500000  0.500000  0.500000  0  .  1
   O  O4  1  0.000000  0.265417  0.668017  0  .  1
   O  O5  1  0.500000  0.215991  0.179382  0  .  1
   O  O6  1  0.500000  0.784009  0.820618  0  .  1
   O  O7  1  0.000000  0.734583  0.331983  0  .  1
 
