#\#CIF1.1
##########################################################################
#               Crystallographic Information Format file 
#               Produced by PyCifRW module
# 
#  This is a CIF file.  CIF has been adopted by the International
#  Union of Crystallography as the standard for data archiving and 
#  transmission.
#
#  For information on this file format, follow the CIF links at
#  http://www.iucr.org
##########################################################################

data_LiV18O44
_symmetry_space_group_name_H-M          'P 1'
_cell_length_a                          21.9184741153
_cell_length_b                          3.66644128
_cell_length_c                          10.2796786945
_cell_angle_alpha                       90.0
_cell_angle_beta                        103.142050266
_cell_angle_gamma                       90.0
_chemical_name_systematic               'Generated by pymatgen'
_symmetry_Int_Tables_number             1
_chemical_formula_structural            LiV18O44
_chemical_formula_sum                   'Li1 V18 O44'
_cell_volume                            804.467561321
_cell_formula_units_Z                   1
loop_
  _symmetry_equiv_pos_site_id
  _symmetry_equiv_pos_as_xyz
   1  'x, y, z'
 
loop_
  _atom_site_type_symbol
  _atom_site_label
  _atom_site_symmetry_multiplicity
  _atom_site_fract_x
  _atom_site_fract_y
  _atom_site_fract_z
  _atom_site_attached_hydrogens
  _atom_site_B_iso_or_equiv
  _atom_site_occupancy
   Li  Li1  1  0.510367  0.750000  0.534173  0  .  1
   V  V2  1  0.026115  0.250000  0.405446  0  .  1
   V  V3  1  0.093252  0.750000  0.864389  0  .  1
   V  V4  1  0.059131  0.250000  0.091130  0  .  1
   V  V5  1  0.286660  0.250000  0.847224  0  .  1
   V  V6  1  0.251639  0.750000  0.070350  0  .  1
   V  V7  1  0.311901  0.250000  0.525901  0  .  1
   V  V8  1  0.362649  0.750000  0.332554  0  .  1
   V  V9  1  0.431621  0.250000  0.786292  0  .  1
   V  V10  1  0.407162  0.750000  0.018146  0  .  1
   V  V11  1  0.592846  0.250000  0.982887  0  .  1
   V  V12  1  0.568156  0.750000  0.215495  0  .  1
   V  V13  1  0.636087  0.250000  0.666266  0  .  1
   V  V14  1  0.687922  0.750000  0.472922  0  .  1
   V  V15  1  0.748801  0.250000  0.929528  0  .  1
   V  V16  1  0.713282  0.750000  0.151643  0  .  1
   V  V17  1  0.940801  0.750000  0.909453  0  .  1
   V  V18  1  0.906925  0.250000  0.136022  0  .  1
   V  V19  1  0.973929  0.750000  0.594825  0  .  1
   O  O20  1  0.003182  0.750000  0.423906  0  .  1
   O  O21  1  0.006876  0.250000  0.218369  0  .  1
   O  O22  1  0.080893  0.250000  0.908506  0  .  1
   O  O23  1  0.102596  0.750000  0.712958  0  .  1
   O  O24  1  0.044421  0.750000  0.044207  0  .  1
   O  O25  1  0.100562  0.250000  0.444390  0  .  1
   O  O26  1  0.172578  0.750000  0.969847  0  .  1
   O  O27  1  0.127183  0.250000  0.188658  0  .  1
   O  O28  1  0.217145  0.250000  0.755960  0  .  1
   O  O29  1  0.237367  0.250000  0.491253  0  .  1
   O  O30  1  0.303091  0.750000  0.894858  0  .  1
   O  O31  1  0.244393  0.750000  0.224272  0  .  1
   O  O32  1  0.333682  0.250000  0.713422  0  .  1
   O  O33  1  0.265639  0.250000  0.029634  0  .  1
   O  O34  1  0.333042  0.750000  0.505703  0  .  1
   O  O35  1  0.390557  0.250000  0.975978  0  .  1
   O  O36  1  0.340347  0.250000  0.354773  0  .  1
   O  O37  1  0.352270  0.750000  0.154299  0  .  1
   O  O38  1  0.426611  0.750000  0.839412  0  .  1
   O  O39  1  0.440064  0.250000  0.630572  0  .  1
   O  O40  1  0.438286  0.750000  0.385707  0  .  1
   O  O41  1  0.520581  0.250000  0.878610  0  .  1
   O  O42  1  0.479358  0.750000  0.121576  0  .  1
   O  O43  1  0.559608  0.250000  0.609550  0  .  1
   O  O44  1  0.560688  0.750000  0.372401  0  .  1
   O  O45  1  0.573362  0.250000  0.160903  0  .  1
   O  O46  1  0.646077  0.250000  0.843211  0  .  1
   O  O47  1  0.657795  0.750000  0.644582  0  .  1
   O  O48  1  0.609393  0.750000  0.024678  0  .  1
   O  O49  1  0.667180  0.250000  0.495605  0  .  1
   O  O50  1  0.734096  0.750000  0.970246  0  .  1
   O  O51  1  0.666442  0.750000  0.286751  0  .  1
   O  O52  1  0.755341  0.250000  0.775356  0  .  1
   O  O53  1  0.696717  0.250000  0.104580  0  .  1
   O  O54  1  0.762522  0.750000  0.508541  0  .  1
   O  O55  1  0.782842  0.750000  0.243870  0  .  1
   O  O56  1  0.872735  0.750000  0.811180  0  .  1
   O  O57  1  0.827302  0.250000  0.029591  0  .  1
   O  O58  1  0.899271  0.750000  0.555545  0  .  1
   O  O59  1  0.955712  0.250000  0.955658  0  .  1
   O  O60  1  0.897394  0.250000  0.287097  0  .  1
   O  O61  1  0.918865  0.750000  0.091016  0  .  1
   O  O62  1  0.993293  0.750000  0.781653  0  .  1
   O  O63  1  0.996866  0.250000  0.575974  0  .  1
 
