#\#CIF1.1
##########################################################################
#               Crystallographic Information Format file 
#               Produced by PyCifRW module
# 
#  This is a CIF file.  CIF has been adopted by the International
#  Union of Crystallography as the standard for data archiving and 
#  transmission.
#
#  For information on this file format, follow the CIF links at
#  http://www.iucr.org
##########################################################################

data_LiV24O58
_symmetry_space_group_name_H-M          'P 1'
_cell_length_a                          14.3381668455
_cell_length_b                          7.34765392259
_cell_length_c                          10.9426053745
_cell_angle_alpha                       70.3677128078
_cell_angle_beta                        97.5621224264
_cell_angle_gamma                       82.6590098953
_chemical_name_systematic               'Generated by pymatgen'
_symmetry_Int_Tables_number             1
_chemical_formula_structural            LiV24O58
_chemical_formula_sum                   'Li1 V24 O58'
_cell_volume                            1057.94559287
_cell_formula_units_Z                   1
loop_
  _symmetry_equiv_pos_site_id
  _symmetry_equiv_pos_as_xyz
   1  'x, y, z'
 
loop_
  _atom_site_type_symbol
  _atom_site_label
  _atom_site_symmetry_multiplicity
  _atom_site_fract_x
  _atom_site_fract_y
  _atom_site_fract_z
  _atom_site_attached_hydrogens
  _atom_site_B_iso_or_equiv
  _atom_site_occupancy
   Li  Li1  1  0.486448  0.397529  0.461663  0  .  1
   V  V2  1  0.173585  0.273015  0.867232  0  .  1
   V  V3  1  0.173167  0.772107  0.869592  0  .  1
   V  V4  1  0.122414  0.421195  0.094676  0  .  1
   V  V5  1  0.121883  0.923192  0.094387  0  .  1
   V  V6  1  0.214623  0.424282  0.544049  0  .  1
   V  V7  1  0.215819  0.924361  0.543151  0  .  1
   V  V8  1  0.293371  0.254991  0.347418  0  .  1
   V  V9  1  0.293309  0.750806  0.347426  0  .  1
   V  V10  1  0.395351  0.256351  0.789193  0  .  1
   V  V11  1  0.392557  0.755777  0.793099  0  .  1
   V  V12  1  0.356421  0.896172  0.028383  0  .  1
   V  V13  1  0.357147  0.397110  0.027980  0  .  1
   V  V14  1  0.643131  0.104500  0.971222  0  .  1
   V  V15  1  0.645045  0.604764  0.967220  0  .  1
   V  V16  1  0.604024  0.249171  0.203802  0  .  1
   V  V17  1  0.604585  0.743729  0.209121  0  .  1
   V  V18  1  0.708990  0.246208  0.654140  0  .  1
   V  V19  1  0.705485  0.748053  0.650361  0  .  1
   V  V20  1  0.785000  0.075420  0.456367  0  .  1
   V  V21  1  0.784481  0.576588  0.455219  0  .  1
   V  V22  1  0.879036  0.076840  0.906400  0  .  1
   V  V23  1  0.879610  0.576272  0.908066  0  .  1
   V  V24  1  0.827418  0.226585  0.132573  0  .  1
   V  V25  1  0.827542  0.726440  0.133280  0  .  1
   O  O26  1  0.067804  0.342560  0.781327  0  .  1
   O  O27  1  0.068161  0.842624  0.781218  0  .  1
   O  O28  1  0.000065  0.000169  0.999836  0  .  1
   O  O29  1  0.000479  0.499872  0.999823  0  .  1
   O  O30  1  0.100968  0.466241  0.516892  0  .  1
   O  O31  1  0.102125  0.966458  0.515876  0  .  1
   O  O32  1  0.110108  0.347083  0.248130  0  .  1
   O  O33  1  0.109957  0.849849  0.247952  0  .  1
   O  O34  1  0.199986  0.993820  0.912113  0  .  1
   O  O35  1  0.200604  0.493750  0.912578  0  .  1
   O  O36  1  0.141442  0.189989  0.049144  0  .  1
   O  O37  1  0.141329  0.689746  0.049969  0  .  1
   O  O38  1  0.246553  0.323794  0.729103  0  .  1
   O  O39  1  0.248553  0.822646  0.730374  0  .  1
   O  O40  1  0.247276  0.677416  0.521465  0  .  1
   O  O41  1  0.247241  0.177393  0.521424  0  .  1
   O  O42  1  0.334299  0.174530  0.983851  0  .  1
   O  O43  1  0.331549  0.671702  0.990346  0  .  1
   O  O44  1  0.255321  0.501638  0.368822  0  .  1
   O  O45  1  0.263371  0.997598  0.373136  0  .  1
   O  O46  1  0.274929  0.344767  0.168587  0  .  1
   O  O47  1  0.274902  0.849163  0.168394  0  .  1
   O  O48  1  0.388741  0.970888  0.846554  0  .  1
   O  O49  1  0.388800  0.487794  0.847169  0  .  1
   O  O50  1  0.405903  0.332000  0.632850  0  .  1
   O  O51  1  0.406134  0.828185  0.641053  0  .  1
   O  O52  1  0.408591  0.223596  0.390103  0  .  1
   O  O53  1  0.408366  0.681520  0.390332  0  .  1
   O  O54  1  0.532163  0.178438  0.876884  0  .  1
   O  O55  1  0.533757  0.678276  0.876700  0  .  1
   O  O56  1  0.467486  0.821820  0.121689  0  .  1
   O  O57  1  0.469188  0.321077  0.123789  0  .  1
   O  O58  1  0.593638  0.296829  0.609669  0  .  1
   O  O59  1  0.591522  0.797284  0.609726  0  .  1
   O  O60  1  0.593104  0.185877  0.357886  0  .  1
   O  O61  1  0.593068  0.655494  0.363809  0  .  1
   O  O62  1  0.612474  0.029384  0.153242  0  .  1
   O  O63  1  0.612280  0.514019  0.149984  0  .  1
   O  O64  1  0.722841  0.651197  0.834483  0  .  1
   O  O65  1  0.725995  0.152980  0.832003  0  .  1
   O  O66  1  0.741554  0.500665  0.629332  0  .  1
   O  O67  1  0.741460  0.999240  0.629594  0  .  1
   O  O68  1  0.666320  0.335337  0.010939  0  .  1
   O  O69  1  0.665389  0.819181  0.012122  0  .  1
   O  O70  1  0.753872  0.321715  0.478987  0  .  1
   O  O71  1  0.750639  0.824531  0.476543  0  .  1
   O  O72  1  0.751827  0.177174  0.269620  0  .  1
   O  O73  1  0.753628  0.676761  0.270038  0  .  1
   O  O74  1  0.858356  0.809850  0.951240  0  .  1
   O  O75  1  0.858492  0.309548  0.951408  0  .  1
   O  O76  1  0.798359  0.006799  0.087045  0  .  1
   O  O77  1  0.802139  0.504646  0.089172  0  .  1
   O  O78  1  0.889754  0.151567  0.752079  0  .  1
   O  O79  1  0.889202  0.650985  0.753527  0  .  1
   O  O80  1  0.898198  0.535574  0.483438  0  .  1
   O  O81  1  0.898685  0.031958  0.483706  0  .  1
   O  O82  1  0.932814  0.154257  0.219679  0  .  1
   O  O83  1  0.933200  0.659284  0.219526  0  .  1
 
