#\#CIF1.1
##########################################################################
#               Crystallographic Information Format file 
#               Produced by PyCifRW module
# 
#  This is a CIF file.  CIF has been adopted by the International
#  Union of Crystallography as the standard for data archiving and 
#  transmission.
#
#  For information on this file format, follow the CIF links at
#  http://www.iucr.org
##########################################################################

data_LiV2O5
_symmetry_space_group_name_H-M          'P 1'
_cell_length_a                          3.6268553
_cell_length_b                          4.71765122
_cell_length_c                          11.45907867
_cell_angle_alpha                       90.0
_cell_angle_beta                        90.0
_cell_angle_gamma                       90.0
_chemical_name_systematic               'Generated by pymatgen'
_symmetry_Int_Tables_number             1
_chemical_formula_structural            LiV2O5
_chemical_formula_sum                   'Li2 V4 O10'
_cell_volume                            196.067567095
_cell_formula_units_Z                   2
loop_
  _symmetry_equiv_pos_site_id
  _symmetry_equiv_pos_as_xyz
   1  'x, y, z'
 
loop_
  _atom_site_type_symbol
  _atom_site_label
  _atom_site_symmetry_multiplicity
  _atom_site_fract_x
  _atom_site_fract_y
  _atom_site_fract_z
  _atom_site_attached_hydrogens
  _atom_site_B_iso_or_equiv
  _atom_site_occupancy
   Li  Li1  1  0.000000  0.722290  0.000000  0  .  1
   Li  Li2  1  0.500000  0.277708  0.500000  0  .  1
   O  O3  1  0.500000  0.457917  0.132621  0  .  1
   O  O4  1  0.500000  0.976040  0.000000  0  .  1
   O  O5  1  0.000000  0.023960  0.500000  0  .  1
   O  O6  1  0.000000  0.980138  0.177100  0  .  1
   O  O7  1  0.000000  0.542081  0.632621  0  .  1
   O  O8  1  0.500000  0.457917  0.867378  0  .  1
   O  O9  1  0.500000  0.019863  0.322900  0  .  1
   O  O10  1  0.500000  0.019863  0.677100  0  .  1
   O  O11  1  0.000000  0.980138  0.822900  0  .  1
   O  O12  1  0.000000  0.542081  0.367378  0  .  1
   V  V13  1  0.000000  0.887066  0.651354  0  .  1
   V  V14  1  0.000000  0.887066  0.348646  0  .  1
   V  V15  1  0.500000  0.112935  0.151354  0  .  1
   V  V16  1  0.500000  0.112935  0.848646  0  .  1
 
