#\#CIF1.1
##########################################################################
#               Crystallographic Information Format file 
#               Produced by PyCifRW module
# 
#  This is a CIF file.  CIF has been adopted by the International
#  Union of Crystallography as the standard for data archiving and 
#  transmission.
#
#  For information on this file format, follow the CIF links at
#  http://www.iucr.org
##########################################################################

data_LiV3O4
_symmetry_space_group_name_H-M          'P 1'
_cell_length_a                          5.31112402586
_cell_length_b                          6.10247193788
_cell_length_c                          6.16957710924
_cell_angle_alpha                       120.377271462
_cell_angle_beta                        54.509361295
_cell_angle_gamma                       150.523145986
_chemical_name_systematic               'Generated by pymatgen'
_symmetry_Int_Tables_number             1
_chemical_formula_structural            LiV3O4
_chemical_formula_sum                   'Li1 V3 O4'
_cell_volume                            80.1147993382
_cell_formula_units_Z                   1
loop_
  _symmetry_equiv_pos_site_id
  _symmetry_equiv_pos_as_xyz
   1  'x, y, z'
 
loop_
  _atom_site_type_symbol
  _atom_site_label
  _atom_site_symmetry_multiplicity
  _atom_site_fract_x
  _atom_site_fract_y
  _atom_site_fract_z
  _atom_site_attached_hydrogens
  _atom_site_B_iso_or_equiv
  _atom_site_occupancy
   Li  Li1  1  0.999913  0.499950  0.000018  0  .  1
   V  V2  1  0.999906  0.499942  0.500015  0  .  1
   V  V3  1  0.999873  0.999911  0.000012  0  .  1
   V  V4  1  0.999880  0.999910  0.500011  0  .  1
   O  O5  1  0.500643  0.000708  0.738459  0  .  1
   O  O6  1  0.500001  0.499915  0.249908  0  .  1
   O  O7  1  0.499179  0.999195  0.261573  0  .  1
   O  O8  1  0.499761  0.499904  0.750111  0  .  1
 
