#\#CIF1.1
##########################################################################
#               Crystallographic Information Format file 
#               Produced by PyCifRW module
# 
#  This is a CIF file.  CIF has been adopted by the International
#  Union of Crystallography as the standard for data archiving and 
#  transmission.
#
#  For information on this file format, follow the CIF links at
#  http://www.iucr.org
##########################################################################

data_LiV3O8
_symmetry_space_group_name_H-M          'P 1'
_cell_length_a                          5.566797993
_cell_length_b                          5.566797993
_cell_length_c                          5.94774492958
_cell_angle_alpha                       90.0213121474
_cell_angle_beta                        90.0213121474
_cell_angle_gamma                       59.9802592285
_chemical_name_systematic               'Generated by pymatgen'
_symmetry_Int_Tables_number             1
_chemical_formula_structural            LiV3O8
_chemical_formula_sum                   'Li1 V3 O8'
_cell_volume                            159.590643666
_cell_formula_units_Z                   1
loop_
  _symmetry_equiv_pos_site_id
  _symmetry_equiv_pos_as_xyz
   1  'x, y, z'
 
loop_
  _atom_site_type_symbol
  _atom_site_label
  _atom_site_symmetry_multiplicity
  _atom_site_fract_x
  _atom_site_fract_y
  _atom_site_fract_z
  _atom_site_attached_hydrogens
  _atom_site_B_iso_or_equiv
  _atom_site_occupancy
   Li  Li1  1  0.000007  0.999993  0.000000  0  .  1
   V  V2  1  0.333567  0.333553  0.775646  0  .  1
   V  V3  1  0.666447  0.666433  0.224354  0  .  1
   V  V4  1  0.999998  0.000002  0.500000  0  .  1
   O  O5  1  0.156674  0.688060  0.689972  0  .  1
   O  O6  1  0.311940  0.843326  0.310028  0  .  1
   O  O7  1  0.332941  0.333094  0.051057  0  .  1
   O  O8  1  0.666906  0.667059  0.948943  0  .  1
   O  O9  1  0.843310  0.843325  0.311809  0  .  1
   O  O10  1  0.156675  0.156690  0.688191  0  .  1
   O  O11  1  0.688130  0.156606  0.690045  0  .  1
   O  O12  1  0.843394  0.311870  0.309955  0  .  1
 
