#\#CIF1.1
##########################################################################
#               Crystallographic Information Format file 
#               Produced by PyCifRW module
# 
#  This is a CIF file.  CIF has been adopted by the International
#  Union of Crystallography as the standard for data archiving and 
#  transmission.
#
#  For information on this file format, follow the CIF links at
#  http://www.iucr.org
##########################################################################

data_LiV9O22
_symmetry_space_group_name_H-M          'P 1'
_cell_length_a                          21.6757822362
_cell_length_b                          3.65617744
_cell_length_c                          10.2832765658
_cell_angle_alpha                       90.0
_cell_angle_beta                        78.4179650789
_cell_angle_gamma                       90.0
_chemical_name_systematic               'Generated by pymatgen'
_symmetry_Int_Tables_number             1
_chemical_formula_structural            LiV9O22
_chemical_formula_sum                   'Li2 V18 O44'
_cell_volume                            798.360963392
_cell_formula_units_Z                   2
loop_
  _symmetry_equiv_pos_site_id
  _symmetry_equiv_pos_as_xyz
   1  'x, y, z'
 
loop_
  _atom_site_type_symbol
  _atom_site_label
  _atom_site_symmetry_multiplicity
  _atom_site_fract_x
  _atom_site_fract_y
  _atom_site_fract_z
  _atom_site_attached_hydrogens
  _atom_site_B_iso_or_equiv
  _atom_site_occupancy
   Li  Li1  1  0.158434  0.750000  0.439770  0  .  1
   Li  Li2  1  0.841566  0.250000  0.560229  0  .  1
   V  V3  1  0.027594  0.250000  0.381044  0  .  1
   V  V4  1  0.091184  0.750000  0.774944  0  .  1
   V  V5  1  0.061885  0.250000  0.032878  0  .  1
   V  V6  1  0.254787  0.750000  0.803976  0  .  1
   V  V7  1  0.283782  0.250000  0.546053  0  .  1
   V  V8  1  0.367330  0.750000  0.958541  0  .  1
   V  V9  1  0.313008  0.250000  0.196324  0  .  1
   V  V10  1  0.406328  0.750000  0.605986  0  .  1
   V  V11  1  0.429394  0.250000  0.348274  0  .  1
   V  V12  1  0.570606  0.750000  0.651726  0  .  1
   V  V13  1  0.593672  0.250000  0.394014  0  .  1
   V  V14  1  0.686992  0.750000  0.803676  0  .  1
   V  V15  1  0.632670  0.250000  0.041459  0  .  1
   V  V16  1  0.716218  0.750000  0.453947  0  .  1
   V  V17  1  0.745213  0.250000  0.196023  0  .  1
   V  V18  1  0.938115  0.750000  0.967122  0  .  1
   V  V19  1  0.908816  0.250000  0.225056  0  .  1
   V  V20  1  0.972406  0.750000  0.618956  0  .  1
   O  O21  1  0.005623  0.750000  0.420336  0  .  1
   O  O22  1  0.078870  0.250000  0.830417  0  .  1
   O  O23  1  0.012474  0.250000  0.210589  0  .  1
   O  O24  1  0.095127  0.750000  0.611518  0  .  1
   O  O25  1  0.045990  0.750000  0.998658  0  .  1
   O  O26  1  0.104257  0.250000  0.363014  0  .  1
   O  O27  1  0.171272  0.750000  0.786868  0  .  1
   O  O28  1  0.247775  0.750000  0.963928  0  .  1
   O  O29  1  0.131040  0.250000  0.064903  0  .  1
   O  O30  1  0.213361  0.250000  0.507514  0  .  1
   O  O31  1  0.264044  0.250000  0.746005  0  .  1
   O  O32  1  0.237235  0.250000  0.232275  0  .  1
   O  O33  1  0.301467  0.750000  0.571733  0  .  1
   O  O34  1  0.353642  0.750000  0.787651  0  .  1
   O  O35  1  0.333946  0.250000  0.364431  0  .  1
   O  O36  1  0.441994  0.750000  0.939304  0  .  1
   O  O37  1  0.389155  0.250000  0.578541  0  .  1
   O  O38  1  0.334840  0.750000  0.159395  0  .  1
   O  O39  1  0.343208  0.250000  -0.000011  0  .  1
   O  O40  1  0.425865  0.750000  0.404933  0  .  1
   O  O41  1  0.479932  0.750000  0.637470  0  .  1
   O  O42  1  0.437344  0.250000  0.188525  0  .  1
   O  O43  1  0.562656  0.750000  0.811475  0  .  1
   O  O44  1  0.520068  0.250000  0.362530  0  .  1
   O  O45  1  0.574135  0.250000  0.595067  0  .  1
   O  O46  1  0.665160  0.250000  0.840605  0  .  1
   O  O47  1  0.610845  0.750000  0.421459  0  .  1
   O  O48  1  0.558006  0.250000  0.060696  0  .  1
   O  O49  1  0.666054  0.750000  0.635569  0  .  1
   O  O50  1  0.646358  0.250000  0.212349  0  .  1
   O  O51  1  0.698533  0.250000  0.428267  0  .  1
   O  O52  1  0.762765  0.750000  0.767725  0  .  1
   O  O53  1  0.656792  0.750000  0.000011  0  .  1
   O  O54  1  0.735956  0.750000  0.253995  0  .  1
   O  O55  1  0.786639  0.750000  0.492486  0  .  1
   O  O56  1  0.868960  0.750000  0.935097  0  .  1
   O  O57  1  0.752225  0.250000  0.036072  0  .  1
   O  O58  1  0.828728  0.250000  0.213132  0  .  1
   O  O59  1  0.895743  0.750000  0.636986  0  .  1
   O  O60  1  0.954010  0.250000  0.001342  0  .  1
   O  O61  1  0.904873  0.250000  0.388482  0  .  1
   O  O62  1  0.987526  0.750000  0.789411  0  .  1
   O  O63  1  0.921130  0.750000  0.169583  0  .  1
   O  O64  1  0.994377  0.250000  0.579664  0  .  1
 
