#\#CIF1.1
##########################################################################
#               Crystallographic Information Format file 
#               Produced by PyCifRW module
# 
#  This is a CIF file.  CIF has been adopted by the International
#  Union of Crystallography as the standard for data archiving and 
#  transmission.
#
#  For information on this file format, follow the CIF links at
#  http://www.iucr.org
##########################################################################

data_Lu(FeB)2
_symmetry_space_group_name_H-M          'P 1'
_cell_length_a                          3.47105445935
_cell_length_b                          3.47105446095
_cell_length_c                          5.22407757599
_cell_angle_alpha                       109.40339197
_cell_angle_beta                        109.403392003
_cell_angle_gamma                       90.000000004
_chemical_name_systematic               'Generated by pymatgen'
_symmetry_Int_Tables_number             1
_chemical_formula_structural            Lu(FeB)2
_chemical_formula_sum                   'Lu1 Fe2 B2'
_cell_volume                            55.5615963354
_cell_formula_units_Z                   1
loop_
  _symmetry_equiv_pos_site_id
  _symmetry_equiv_pos_as_xyz
   1  'x, y, z'
 
loop_
  _atom_site_type_symbol
  _atom_site_label
  _atom_site_symmetry_multiplicity
  _atom_site_fract_x
  _atom_site_fract_y
  _atom_site_fract_z
  _atom_site_attached_hydrogens
  _atom_site_B_iso_or_equiv
  _atom_site_occupancy
   B  B1  1  0.611218  0.611218  0.222437  0  .  1
   B  B2  1  0.388782  0.388782  0.777563  0  .  1
   Fe  Fe3  1  0.250000  0.750000  0.500000  0  .  1
   Fe  Fe4  1  0.750000  0.250000  0.500000  0  .  1
   Lu  Lu5  1  0.000000  0.000000  0.000000  0  .  1
 
