#\#CIF1.1
##########################################################################
#               Crystallographic Information Format file 
#               Produced by PyCifRW module
# 
#  This is a CIF file.  CIF has been adopted by the International
#  Union of Crystallography as the standard for data archiving and 
#  transmission.
#
#  For information on this file format, follow the CIF links at
#  http://www.iucr.org
##########################################################################

data_LuSBr
_symmetry_space_group_name_H-M          'P 1'
_cell_length_a                          3.97652302
_cell_length_b                          5.63539233
_cell_length_c                          8.34777298
_cell_angle_alpha                       90.0
_cell_angle_beta                        90.0
_cell_angle_gamma                       90.0
_chemical_name_systematic               'Generated by pymatgen'
_symmetry_Int_Tables_number             1
_chemical_formula_structural            LuSBr
_chemical_formula_sum                   'Lu2 S2 Br2'
_cell_volume                            187.067476294
_cell_formula_units_Z                   2
loop_
  _symmetry_equiv_pos_site_id
  _symmetry_equiv_pos_as_xyz
   1  'x, y, z'
 
loop_
  _atom_site_type_symbol
  _atom_site_label
  _atom_site_symmetry_multiplicity
  _atom_site_fract_x
  _atom_site_fract_y
  _atom_site_fract_z
  _atom_site_attached_hydrogens
  _atom_site_B_iso_or_equiv
  _atom_site_occupancy
   Lu  Lu1  1  0.750000  0.750000  0.809427  0  .  1
   Lu  Lu2  1  0.250000  0.250000  0.190573  0  .  1
   S  S3  1  0.750000  0.250000  0.361868  0  .  1
   S  S4  1  0.250000  0.750000  0.638132  0  .  1
   Br  Br5  1  0.250000  0.750000  0.094619  0  .  1
   Br  Br6  1  0.750000  0.250000  0.905381  0  .  1
 
