#\#CIF1.1
##########################################################################
#               Crystallographic Information Format file 
#               Produced by PyCifRW module
# 
#  This is a CIF file.  CIF has been adopted by the International
#  Union of Crystallography as the standard for data archiving and 
#  transmission.
#
#  For information on this file format, follow the CIF links at
#  http://www.iucr.org
##########################################################################

data_Mg(AlSe2)2
_symmetry_space_group_name_H-M          'P 1'
_cell_length_a                          13.9093231603
_cell_length_b                          13.9093231586
_cell_length_c                          13.9093231632
_cell_angle_alpha                       16.2106878733
_cell_angle_beta                        16.2106879055
_cell_angle_gamma                       16.2106879021
_chemical_name_systematic               'Generated by pymatgen'
_symmetry_Int_Tables_number             1
_chemical_formula_structural            Mg(AlSe2)2
_chemical_formula_sum                   'Mg1 Al2 Se4'
_cell_volume                            182.841158349
_cell_formula_units_Z                   1
loop_
  _symmetry_equiv_pos_site_id
  _symmetry_equiv_pos_as_xyz
   1  'x, y, z'
 
loop_
  _atom_site_type_symbol
  _atom_site_label
  _atom_site_symmetry_multiplicity
  _atom_site_fract_x
  _atom_site_fract_y
  _atom_site_fract_z
  _atom_site_attached_hydrogens
  _atom_site_B_iso_or_equiv
  _atom_site_occupancy
   Mg  Mg1  1  0.167559  0.167559  0.167559  0  .  1
   Al  Al2  1  0.409850  0.409850  0.409850  0  .  1
   Al  Al3  1  0.925292  0.925292  0.925292  0  .  1
   Se  Se4  1  0.869149  0.869149  0.869149  0  .  1
   Se  Se5  1  0.465992  0.465992  0.465992  0  .  1
   Se  Se6  1  0.284678  0.284678  0.284678  0  .  1
   Se  Se7  1  0.050479  0.050479  0.050479  0  .  1
 
