#\#CIF1.1
##########################################################################
#               Crystallographic Information Format file 
#               Produced by PyCifRW module
# 
#  This is a CIF file.  CIF has been adopted by the International
#  Union of Crystallography as the standard for data archiving and 
#  transmission.
#
#  For information on this file format, follow the CIF links at
#  http://www.iucr.org
##########################################################################

data_Mg(CoO2)2
_symmetry_space_group_name_H-M          'P 1'
_cell_length_a                          4.84583102037
_cell_length_b                          5.58832627358
_cell_length_c                          10.0229612768
_cell_angle_alpha                       89.9959528663
_cell_angle_beta                        90.0013936961
_cell_angle_gamma                       89.9997721906
_chemical_name_systematic               'Generated by pymatgen'
_symmetry_Int_Tables_number             1
_chemical_formula_structural            Mg(CoO2)2
_chemical_formula_sum                   'Mg4 Co8 O16'
_cell_volume                            271.422640649
_cell_formula_units_Z                   4
loop_
  _symmetry_equiv_pos_site_id
  _symmetry_equiv_pos_as_xyz
   1  'x, y, z'
 
loop_
  _atom_site_type_symbol
  _atom_site_label
  _atom_site_symmetry_multiplicity
  _atom_site_fract_x
  _atom_site_fract_y
  _atom_site_fract_z
  _atom_site_attached_hydrogens
  _atom_site_B_iso_or_equiv
  _atom_site_occupancy
   Mg  Mg1  1  0.029171  0.749998  0.249999  0  .  1
   Mg  Mg2  1  0.356962  0.750007  0.749998  0  .  1
   Mg  Mg3  1  0.643026  0.249993  0.250004  0  .  1
   Mg  Mg4  1  0.970814  0.250003  0.749998  0  .  1
   Co  Co5  1  0.008154  0.249999  0.008989  0  .  1
   Co  Co6  1  0.991855  0.750001  0.991012  0  .  1
   Co  Co7  1  0.008146  0.250001  0.491012  0  .  1
   Co  Co8  1  0.991853  0.749999  0.508987  0  .  1
   Co  Co9  1  0.500003  0.999999  0.000002  0  .  1
   Co  Co10  1  0.499999  -0.000000  0.500000  0  .  1
   Co  Co11  1  0.500003  0.500001  0.000002  0  .  1
   Co  Co12  1  0.499999  0.500000  0.500000  0  .  1
   O  O13  1  0.166122  0.001486  0.892294  0  .  1
   O  O14  1  0.166131  0.001446  0.607712  0  .  1
   O  O15  1  0.166126  0.498520  0.607707  0  .  1
   O  O16  1  0.166125  0.498556  0.892291  0  .  1
   O  O17  1  0.349147  0.249976  0.104016  0  .  1
   O  O18  1  0.349126  0.250020  0.395990  0  .  1
   O  O19  1  0.315252  0.749978  0.096437  0  .  1
   O  O20  1  0.315238  0.750019  0.403577  0  .  1
   O  O21  1  0.684759  0.249981  0.596423  0  .  1
   O  O22  1  0.684756  0.250022  0.903565  0  .  1
   O  O23  1  0.650872  0.749980  0.604011  0  .  1
   O  O24  1  0.650857  0.750024  0.895982  0  .  1
   O  O25  1  0.833882  0.998514  0.107705  0  .  1
   O  O26  1  0.833868  0.998554  0.392287  0  .  1
   O  O27  1  0.833879  0.501444  0.107708  0  .  1
   O  O28  1  0.833873  0.501480  0.392292  0  .  1
 
