#\#CIF1.1
##########################################################################
#               Crystallographic Information Format file 
#               Produced by PyCifRW module
# 
#  This is a CIF file.  CIF has been adopted by the International
#  Union of Crystallography as the standard for data archiving and 
#  transmission.
#
#  For information on this file format, follow the CIF links at
#  http://www.iucr.org
##########################################################################

data_Mg(NiO2)2
_symmetry_space_group_name_H-M          'P 1'
_cell_length_a                          5.98330213683
_cell_length_b                          5.98330213683
_cell_length_c                          5.98330213683
_cell_angle_alpha                       123.330852334
_cell_angle_beta                        123.330852334
_cell_angle_gamma                       84.3215433668
_chemical_name_systematic               'Generated by pymatgen'
_symmetry_Int_Tables_number             1
_chemical_formula_structural            Mg(NiO2)2
_chemical_formula_sum                   'Mg2 Ni4 O8'
_cell_volume                            143.069451733
_cell_formula_units_Z                   2
loop_
  _symmetry_equiv_pos_site_id
  _symmetry_equiv_pos_as_xyz
   1  'x, y, z'
 
loop_
  _atom_site_type_symbol
  _atom_site_label
  _atom_site_symmetry_multiplicity
  _atom_site_fract_x
  _atom_site_fract_y
  _atom_site_fract_z
  _atom_site_attached_hydrogens
  _atom_site_B_iso_or_equiv
  _atom_site_occupancy
   Mg  Mg1  1  0.000000  0.000000  0.000000  0  .  1
   Mg  Mg2  1  0.750000  0.250000  0.500000  0  .  1
   Ni  Ni3  1  0.875000  0.625000  0.250000  0  .  1
   Ni  Ni4  1  0.375000  0.125000  0.750000  0  .  1
   Ni  Ni5  1  0.375000  0.625000  0.250000  0  .  1
   Ni  Ni6  1  0.375000  0.625000  0.750000  0  .  1
   O  O7  1  0.609083  0.385088  0.223995  0  .  1
   O  O8  1  0.614912  0.838906  0.223995  0  .  1
   O  O9  1  0.135088  0.411094  0.276005  0  .  1
   O  O10  1  0.614912  0.390917  0.776005  0  .  1
   O  O11  1  0.588906  0.864912  0.723995  0  .  1
   O  O12  1  0.161094  0.385088  0.776005  0  .  1
   O  O13  1  0.140917  0.864912  0.276005  0  .  1
   O  O14  1  0.135088  0.859083  0.723995  0  .  1
 
