#\#CIF1.1
##########################################################################
#               Crystallographic Information Format file 
#               Produced by PyCifRW module
# 
#  This is a CIF file.  CIF has been adopted by the International
#  Union of Crystallography as the standard for data archiving and 
#  transmission.
#
#  For information on this file format, follow the CIF links at
#  http://www.iucr.org
##########################################################################

data_Mg(TiS2)4
_symmetry_space_group_name_H-M          'P 1'
_cell_length_a                          7.0158388566
_cell_length_b                          7.05508335929
_cell_length_c                          7.05508416816
_cell_angle_alpha                       60.0000017159
_cell_angle_beta                        59.8147862964
_cell_angle_gamma                       59.8147826004
_chemical_name_systematic               'Generated by pymatgen'
_symmetry_Int_Tables_number             1
_chemical_formula_structural            Mg(TiS2)4
_chemical_formula_sum                   'Mg1 Ti4 S8'
_cell_volume                            246.233677168
_cell_formula_units_Z                   1
loop_
  _symmetry_equiv_pos_site_id
  _symmetry_equiv_pos_as_xyz
   1  'x, y, z'
 
loop_
  _atom_site_type_symbol
  _atom_site_label
  _atom_site_symmetry_multiplicity
  _atom_site_fract_x
  _atom_site_fract_y
  _atom_site_fract_z
  _atom_site_attached_hydrogens
  _atom_site_B_iso_or_equiv
  _atom_site_occupancy
   Mg  Mg1  1  0.500000  0.000000  0.000000  0  .  1
   S  S2  1  0.249796  0.254320  0.254320  0  .  1
   S  S3  1  0.249796  0.254320  0.741564  0  .  1
   S  S4  1  0.249796  0.741564  0.254320  0  .  1
   S  S5  1  0.736982  0.254339  0.254339  0  .  1
   S  S6  1  0.263018  0.745661  0.745661  0  .  1
   S  S7  1  0.750204  0.745680  0.258436  0  .  1
   S  S8  1  0.750204  0.258436  0.745680  0  .  1
   S  S9  1  0.750204  0.745680  0.745680  0  .  1
   Ti  Ti10  1  0.000000  0.500000  0.500000  0  .  1
   Ti  Ti11  1  0.500000  0.500000  0.000000  0  .  1
   Ti  Ti12  1  0.500000  0.500000  0.500000  0  .  1
   Ti  Ti13  1  0.500000  0.000000  0.500000  0  .  1
 
