#\#CIF1.1
##########################################################################
#               Crystallographic Information Format file 
#               Produced by PyCifRW module
# 
#  This is a CIF file.  CIF has been adopted by the International
#  Union of Crystallography as the standard for data archiving and 
#  transmission.
#
#  For information on this file format, follow the CIF links at
#  http://www.iucr.org
##########################################################################

data_Mg10(Fe3O8)3
_symmetry_space_group_name_H-M          'P 1'
_cell_length_a                          6.15294341157
_cell_length_b                          5.96831306952
_cell_length_c                          17.9121923049
_cell_angle_alpha                       60.2176995274
_cell_angle_beta                        60.6446801478
_cell_angle_gamma                       60.5126427713
_chemical_name_systematic               'Generated by pymatgen'
_symmetry_Int_Tables_number             1
_chemical_formula_structural            Mg10(Fe3O8)3
_chemical_formula_sum                   'Mg10 Fe9 O24'
_cell_volume                            469.929272627
_cell_formula_units_Z                   1
loop_
  _symmetry_equiv_pos_site_id
  _symmetry_equiv_pos_as_xyz
   1  'x, y, z'
 
loop_
  _atom_site_type_symbol
  _atom_site_label
  _atom_site_symmetry_multiplicity
  _atom_site_fract_x
  _atom_site_fract_y
  _atom_site_fract_z
  _atom_site_attached_hydrogens
  _atom_site_B_iso_or_equiv
  _atom_site_occupancy
   Mg  Mg1  1  0.625992  0.123603  0.207991  0  .  1
   Mg  Mg2  1  0.622170  0.627866  0.042142  0  .  1
   Mg  Mg3  1  0.022577  0.988539  0.327491  0  .  1
   Mg  Mg4  1  0.650568  0.119451  0.535419  0  .  1
   Mg  Mg5  1  0.629456  0.625004  0.372888  0  .  1
   Mg  Mg6  1  0.632415  0.115649  0.709138  0  .  1
   Mg  Mg7  1  0.100919  0.957134  0.657095  0  .  1
   Mg  Mg8  1  0.626338  0.625591  0.707222  0  .  1
   Mg  Mg9  1  0.599623  0.126503  0.882576  0  .  1
   Mg  Mg10  1  0.600087  0.625371  0.883413  0  .  1
   Fe  Fe11  1  0.012289  0.997957  0.996410  0  .  1
   Fe  Fe12  1  0.229384  0.263527  0.086383  0  .  1
   Fe  Fe13  1  0.116532  0.627927  0.209568  0  .  1
   Fe  Fe14  1  0.246840  0.256420  0.419390  0  .  1
   Fe  Fe15  1  0.128107  0.622353  0.545058  0  .  1
   Fe  Fe16  1  0.624114  0.627573  0.209863  0  .  1
   Fe  Fe17  1  0.151816  0.287043  0.760450  0  .  1
   Fe  Fe18  1  0.657040  0.626011  0.535040  0  .  1
   Fe  Fe19  1  0.105000  0.635912  0.874139  0  .  1
   O  O20  1  0.368349  0.388855  0.129540  0  .  1
   O  O21  1  0.371086  0.858015  0.131019  0  .  1
   O  O22  1  0.377659  0.383000  0.286231  0  .  1
   O  O23  1  0.845146  0.392783  0.129687  0  .  1
   O  O24  1  0.380762  0.378636  0.464345  0  .  1
   O  O25  1  0.415838  0.854179  0.284627  0  .  1
   O  O26  1  0.383221  0.851444  0.463890  0  .  1
   O  O27  1  0.874704  0.401031  0.283807  0  .  1
   O  O28  1  0.379949  0.371212  0.626894  0  .  1
   O  O29  1  0.873662  0.867111  0.129246  0  .  1
   O  O30  1  0.862280  0.382884  0.459996  0  .  1
   O  O31  1  0.879474  0.857155  0.284441  0  .  1
   O  O32  1  0.361942  0.382511  0.788974  0  .  1
   O  O33  1  0.464122  0.844929  0.611336  0  .  1
   O  O34  1  0.360529  0.892488  0.787964  0  .  1
   O  O35  1  0.879525  0.367153  0.625616  0  .  1
   O  O36  1  0.348506  0.396025  0.954930  0  .  1
   O  O37  1  0.898893  0.847294  0.464572  0  .  1
   O  O38  1  0.884275  0.863916  0.626835  0  .  1
   O  O39  1  0.795648  0.398257  0.802124  0  .  1
   O  O40  1  0.384769  0.870875  0.959360  0  .  1
   O  O41  1  0.870887  0.396512  0.954222  0  .  1
   O  O42  1  0.862370  0.875384  0.793872  0  .  1
   O  O43  1  0.870136  0.873920  0.953129  0  .  1
 
