#\#CIF1.1
##########################################################################
#               Crystallographic Information Format file 
#               Produced by PyCifRW module
# 
#  This is a CIF file.  CIF has been adopted by the International
#  Union of Crystallography as the standard for data archiving and 
#  transmission.
#
#  For information on this file format, follow the CIF links at
#  http://www.iucr.org
##########################################################################

data_Mg2CoO4
_symmetry_space_group_name_H-M          'P 1'
_cell_length_a                          5.94614369692
_cell_length_b                          5.94614369692
_cell_length_c                          5.94614369692
_cell_angle_alpha                       60.0
_cell_angle_beta                        60.0
_cell_angle_gamma                       60.0
_chemical_name_systematic               'Generated by pymatgen'
_symmetry_Int_Tables_number             1
_chemical_formula_structural            Mg2CoO4
_chemical_formula_sum                   'Mg4 Co2 O8'
_cell_volume                            148.658998666
_cell_formula_units_Z                   2
loop_
  _symmetry_equiv_pos_site_id
  _symmetry_equiv_pos_as_xyz
   1  'x, y, z'
 
loop_
  _atom_site_type_symbol
  _atom_site_label
  _atom_site_symmetry_multiplicity
  _atom_site_fract_x
  _atom_site_fract_y
  _atom_site_fract_z
  _atom_site_attached_hydrogens
  _atom_site_B_iso_or_equiv
  _atom_site_occupancy
   Mg  Mg1  1  0.500000  0.500000  0.000000  0  .  1
   Mg  Mg2  1  0.500000  0.000000  0.500000  0  .  1
   Mg  Mg3  1  0.000000  0.500000  0.500000  0  .  1
   Mg  Mg4  1  0.500000  0.500000  0.500000  0  .  1
   Co  Co5  1  0.125000  0.125000  0.125000  0  .  1
   Co  Co6  1  0.875000  0.875000  0.875000  0  .  1
   O  O7  1  0.250801  0.250801  0.250801  0  .  1
   O  O8  1  0.747597  0.250801  0.250801  0  .  1
   O  O9  1  0.749199  0.749199  0.252403  0  .  1
   O  O10  1  0.749199  0.252403  0.749199  0  .  1
   O  O11  1  0.250801  0.747597  0.250801  0  .  1
   O  O12  1  0.250801  0.250801  0.747597  0  .  1
   O  O13  1  0.252403  0.749199  0.749199  0  .  1
   O  O14  1  0.749199  0.749199  0.749199  0  .  1
 
