#\#CIF1.1
##########################################################################
#               Crystallographic Information Format file 
#               Produced by PyCifRW module
# 
#  This is a CIF file.  CIF has been adopted by the International
#  Union of Crystallography as the standard for data archiving and 
#  transmission.
#
#  For information on this file format, follow the CIF links at
#  http://www.iucr.org
##########################################################################

data_Mg2FeO4
_symmetry_space_group_name_H-M          'P 1'
_cell_length_a                          6.01054966955
_cell_length_b                          6.01056753817
_cell_length_c                          6.01054966955
_cell_angle_alpha                       119.999901658
_cell_angle_beta                        90.0
_cell_angle_gamma                       60.0000983416
_chemical_name_systematic               'Generated by pymatgen'
_symmetry_Int_Tables_number             1
_chemical_formula_structural            Mg2FeO4
_chemical_formula_sum                   'Mg4 Fe2 O8'
_cell_volume                            153.54304728
_cell_formula_units_Z                   2
loop_
  _symmetry_equiv_pos_site_id
  _symmetry_equiv_pos_as_xyz
   1  'x, y, z'
 
loop_
  _atom_site_type_symbol
  _atom_site_label
  _atom_site_symmetry_multiplicity
  _atom_site_fract_x
  _atom_site_fract_y
  _atom_site_fract_z
  _atom_site_attached_hydrogens
  _atom_site_B_iso_or_equiv
  _atom_site_occupancy
   Mg  Mg1  1  0.375000  0.750000  0.375000  0  .  1
   Mg  Mg2  1  0.875000  0.750000  0.375000  0  .  1
   Mg  Mg3  1  0.375000  0.250000  0.875000  0  .  1
   Mg  Mg4  1  0.375000  0.250000  0.375000  0  .  1
   Fe  Fe5  1  0.750000  0.500000  0.750000  0  .  1
   Fe  Fe6  1  0.000000  0.000000  0.000000  0  .  1
   O  O7  1  0.621462  0.757076  0.621479  0  .  1
   O  O8  1  0.621462  0.757076  0.135597  0  .  1
   O  O9  1  0.128538  0.742924  0.128521  0  .  1
   O  O10  1  0.128538  0.742924  0.614403  0  .  1
   O  O11  1  0.614403  0.257076  0.128538  0  .  1
   O  O12  1  0.128521  0.257076  0.128538  0  .  1
   O  O13  1  0.621479  0.242924  0.621462  0  .  1
   O  O14  1  0.135597  0.242924  0.621462  0  .  1
 
