#\#CIF1.1
##########################################################################
#               Crystallographic Information Format file 
#               Produced by PyCifRW module
# 
#  This is a CIF file.  CIF has been adopted by the International
#  Union of Crystallography as the standard for data archiving and 
#  transmission.
#
#  For information on this file format, follow the CIF links at
#  http://www.iucr.org
##########################################################################

data_Mg2Mn3O8
_symmetry_space_group_name_H-M          'P 1'
_cell_length_a                          5.90901019752
_cell_length_b                          5.90901019752
_cell_length_c                          4.8902292041
_cell_angle_alpha                       72.4576360545
_cell_angle_beta                        107.542363946
_cell_angle_gamma                       121.271296692
_chemical_name_systematic               'Generated by pymatgen'
_symmetry_Int_Tables_number             1
_chemical_formula_structural            Mg2Mn3O8
_chemical_formula_sum                   'Mg2 Mn3 O8'
_cell_volume                            136.936690265
_cell_formula_units_Z                   1
loop_
  _symmetry_equiv_pos_site_id
  _symmetry_equiv_pos_as_xyz
   1  'x, y, z'
 
loop_
  _atom_site_type_symbol
  _atom_site_label
  _atom_site_symmetry_multiplicity
  _atom_site_fract_x
  _atom_site_fract_y
  _atom_site_fract_z
  _atom_site_attached_hydrogens
  _atom_site_B_iso_or_equiv
  _atom_site_occupancy
   Mg  Mg1  1  0.278919  0.721081  0.348647  0  .  1
   Mg  Mg2  1  0.721081  0.278919  0.651353  0  .  1
   Mn  Mn3  1  0.000000  0.000000  0.500000  0  .  1
   Mn  Mn4  1  0.260280  0.260280  0.000000  0  .  1
   Mn  Mn5  1  0.739720  0.739720  0.000000  0  .  1
   O  O6  1  0.105514  0.894486  0.913900  0  .  1
   O  O7  1  0.111725  0.339939  0.597452  0  .  1
   O  O8  1  0.660061  0.888275  0.597452  0  .  1
   O  O9  1  0.391138  0.608862  0.064556  0  .  1
   O  O10  1  0.608862  0.391138  0.935444  0  .  1
   O  O11  1  0.339939  0.111725  0.402548  0  .  1
   O  O12  1  0.888275  0.660061  0.402548  0  .  1
   O  O13  1  0.894486  0.105514  0.086100  0  .  1
 
