#\#CIF1.1
##########################################################################
#               Crystallographic Information Format file 
#               Produced by PyCifRW module
# 
#  This is a CIF file.  CIF has been adopted by the International
#  Union of Crystallography as the standard for data archiving and 
#  transmission.
#
#  For information on this file format, follow the CIF links at
#  http://www.iucr.org
##########################################################################

data_Mg2Mn3O7
_symmetry_space_group_name_H-M          'P 1'
_cell_length_a                          6.54769246261
_cell_length_b                          6.105079663
_cell_length_c                          7.84723856574
_cell_angle_alpha                       99.3513825669
_cell_angle_beta                        114.135069288
_cell_angle_gamma                       103.793578041
_chemical_name_systematic               'Generated by pymatgen'
_symmetry_Int_Tables_number             1
_chemical_formula_structural            Mg2Mn3O7
_chemical_formula_sum                   'Mg4 Mn6 O14'
_cell_volume                            265.779872477
_cell_formula_units_Z                   2
loop_
  _symmetry_equiv_pos_site_id
  _symmetry_equiv_pos_as_xyz
   1  'x, y, z'
 
loop_
  _atom_site_type_symbol
  _atom_site_label
  _atom_site_symmetry_multiplicity
  _atom_site_fract_x
  _atom_site_fract_y
  _atom_site_fract_z
  _atom_site_attached_hydrogens
  _atom_site_B_iso_or_equiv
  _atom_site_occupancy
   Mg  Mg1  1  0.304733  0.677801  0.468692  0  .  1
   Mg  Mg2  1  0.342085  0.841806  0.068656  0  .  1
   Mg  Mg3  1  0.657915  0.158194  0.931344  0  .  1
   Mg  Mg4  1  0.695267  0.322199  0.531308  0  .  1
   Mn  Mn5  1  0.214061  0.224811  0.644241  0  .  1
   Mn  Mn6  1  0.080686  0.079562  0.226021  0  .  1
   Mn  Mn7  1  0.639374  0.640590  0.921362  0  .  1
   Mn  Mn8  1  0.360626  0.359410  0.078638  0  .  1
   Mn  Mn9  1  0.919314  0.920438  0.773979  0  .  1
   Mn  Mn10  1  0.785939  0.775189  0.355759  0  .  1
   O  O11  1  0.122901  0.899804  0.410308  0  .  1
   O  O12  1  0.315041  0.536425  0.886607  0  .  1
   O  O13  1  0.132968  0.348642  0.430527  0  .  1
   O  O14  1  0.021170  0.226565  0.016548  0  .  1
   O  O15  1  0.299334  0.084614  0.875384  0  .  1
   O  O16  1  0.571883  0.829869  0.743241  0  .  1
   O  O17  1  0.436601  0.653512  0.272727  0  .  1
   O  O18  1  0.563399  0.346488  0.727273  0  .  1
   O  O19  1  0.428117  0.170131  0.256759  0  .  1
   O  O20  1  0.700666  0.915386  0.124616  0  .  1
   O  O21  1  0.978830  0.773435  0.983452  0  .  1
   O  O22  1  0.867032  0.651358  0.569473  0  .  1
   O  O23  1  0.684959  0.463575  0.113393  0  .  1
   O  O24  1  0.877099  0.100196  0.589692  0  .  1
 
