#\#CIF1.1
##########################################################################
#               Crystallographic Information Format file 
#               Produced by PyCifRW module
# 
#  This is a CIF file.  CIF has been adopted by the International
#  Union of Crystallography as the standard for data archiving and 
#  transmission.
#
#  For information on this file format, follow the CIF links at
#  http://www.iucr.org
##########################################################################

data_Mg2TiO4
_symmetry_space_group_name_H-M          'P 1'
_cell_length_a                          6.0516901
_cell_length_b                          6.0516901
_cell_length_c                          8.48760046
_cell_angle_alpha                       90.0
_cell_angle_beta                        90.0
_cell_angle_gamma                       90.0
_chemical_name_systematic               'Generated by pymatgen'
_symmetry_Int_Tables_number             1
_chemical_formula_structural            Mg2TiO4
_chemical_formula_sum                   'Mg8 Ti4 O16'
_cell_volume                            310.840993293
_cell_formula_units_Z                   4
loop_
  _symmetry_equiv_pos_site_id
  _symmetry_equiv_pos_as_xyz
   1  'x, y, z'
 
loop_
  _atom_site_type_symbol
  _atom_site_label
  _atom_site_symmetry_multiplicity
  _atom_site_fract_x
  _atom_site_fract_y
  _atom_site_fract_z
  _atom_site_attached_hydrogens
  _atom_site_B_iso_or_equiv
  _atom_site_occupancy
   Mg  Mg1  1  0.000000  0.248749  0.000000  0  .  1
   Mg  Mg2  1  0.000000  0.751251  0.500000  0  .  1
   Mg  Mg3  1  0.248749  0.000000  0.750000  0  .  1
   Mg  Mg4  1  0.252579  0.252579  0.375000  0  .  1
   Mg  Mg5  1  0.252579  0.747421  0.125000  0  .  1
   Mg  Mg6  1  0.747421  0.252579  0.625000  0  .  1
   Mg  Mg7  1  0.747421  0.747421  0.875000  0  .  1
   Mg  Mg8  1  0.751251  0.000000  0.250000  0  .  1
   Ti  Ti9  1  0.236001  0.500000  0.750000  0  .  1
   Ti  Ti10  1  0.500000  0.236001  0.000000  0  .  1
   Ti  Ti11  1  0.500000  0.763999  0.500000  0  .  1
   Ti  Ti12  1  0.763999  0.500000  0.250000  0  .  1
   O  O13  1  0.026516  0.263255  0.752101  0  .  1
   O  O14  1  0.026516  0.736745  0.747899  0  .  1
   O  O15  1  0.260877  0.483015  0.982866  0  .  1
   O  O16  1  0.260877  0.516985  0.517134  0  .  1
   O  O17  1  0.263255  0.026516  0.997899  0  .  1
   O  O18  1  0.263255  0.973484  0.502101  0  .  1
   O  O19  1  0.483015  0.260877  0.767134  0  .  1
   O  O20  1  0.483015  0.739123  0.732866  0  .  1
   O  O21  1  0.516985  0.260877  0.232866  0  .  1
   O  O22  1  0.516985  0.739123  0.267134  0  .  1
   O  O23  1  0.736745  0.973484  0.497899  0  .  1
   O  O24  1  0.736745  0.026516  0.002101  0  .  1
   O  O25  1  0.739123  0.483015  0.017134  0  .  1
   O  O26  1  0.739123  0.516985  0.482866  0  .  1
   O  O27  1  0.973484  0.263255  0.247899  0  .  1
   O  O28  1  0.973484  0.736745  0.252101  0  .  1
 
