#\#CIF1.1
##########################################################################
#               Crystallographic Information Format file 
#               Produced by PyCifRW module
# 
#  This is a CIF file.  CIF has been adopted by the International
#  Union of Crystallography as the standard for data archiving and 
#  transmission.
#
#  For information on this file format, follow the CIF links at
#  http://www.iucr.org
##########################################################################

data_Mg2VO4
_symmetry_space_group_name_H-M          'P 1'
_cell_length_a                          5.98098804661
_cell_length_b                          5.98098804463
_cell_length_c                          5.98098805
_cell_angle_alpha                       60.0000000256
_cell_angle_beta                        60.0000000365
_cell_angle_gamma                       60.0000000134
_chemical_name_systematic               'Generated by pymatgen'
_symmetry_Int_Tables_number             1
_chemical_formula_structural            Mg2VO4
_chemical_formula_sum                   'Mg4 V2 O8'
_cell_volume                            151.287764596
_cell_formula_units_Z                   2
loop_
  _symmetry_equiv_pos_site_id
  _symmetry_equiv_pos_as_xyz
   1  'x, y, z'
 
loop_
  _atom_site_type_symbol
  _atom_site_label
  _atom_site_symmetry_multiplicity
  _atom_site_fract_x
  _atom_site_fract_y
  _atom_site_fract_z
  _atom_site_attached_hydrogens
  _atom_site_B_iso_or_equiv
  _atom_site_occupancy
   O  O1  1  0.748478  0.748478  0.748478  0  .  1
   O  O2  1  0.251522  0.251522  0.745433  0  .  1
   O  O3  1  0.251522  0.745433  0.251522  0  .  1
   O  O4  1  0.745433  0.251522  0.251522  0  .  1
   O  O5  1  0.748478  0.254567  0.748478  0  .  1
   O  O6  1  0.254567  0.748478  0.748478  0  .  1
   O  O7  1  0.251522  0.251522  0.251522  0  .  1
   O  O8  1  0.748478  0.748478  0.254567  0  .  1
   Mg  Mg9  1  0.500000  0.000000  0.500000  0  .  1
   Mg  Mg10  1  0.000000  0.500000  0.500000  0  .  1
   Mg  Mg11  1  0.500000  0.500000  0.000000  0  .  1
   Mg  Mg12  1  0.500000  0.500000  0.500000  0  .  1
   V  V13  1  0.125000  0.125000  0.125000  0  .  1
   V  V14  1  0.875000  0.875000  0.875000  0  .  1
 
