#\#CIF1.1
##########################################################################
#               Crystallographic Information Format file 
#               Produced by PyCifRW module
# 
#  This is a CIF file.  CIF has been adopted by the International
#  Union of Crystallography as the standard for data archiving and 
#  transmission.
#
#  For information on this file format, follow the CIF links at
#  http://www.iucr.org
##########################################################################

data_Mg2V2O7
_symmetry_space_group_name_H-M          'P 1'
_cell_length_a                          6.71965220555
_cell_length_b                          8.53170552
_cell_length_c                          9.61705362496
_cell_angle_alpha                       90.0
_cell_angle_beta                        100.833118204
_cell_angle_gamma                       90.0
_chemical_name_systematic               'Generated by pymatgen'
_symmetry_Int_Tables_number             1
_chemical_formula_structural            Mg2V2O7
_chemical_formula_sum                   'Mg8 V8 O28'
_cell_volume                            541.520915614
_cell_formula_units_Z                   4
loop_
  _symmetry_equiv_pos_site_id
  _symmetry_equiv_pos_as_xyz
   1  'x, y, z'
 
loop_
  _atom_site_type_symbol
  _atom_site_label
  _atom_site_symmetry_multiplicity
  _atom_site_fract_x
  _atom_site_fract_y
  _atom_site_fract_z
  _atom_site_attached_hydrogens
  _atom_site_B_iso_or_equiv
  _atom_site_occupancy
   Mg  Mg1  1  0.307901  0.110816  0.181363  0  .  1
   Mg  Mg2  1  0.692099  0.610816  0.318637  0  .  1
   Mg  Mg3  1  0.146945  0.121063  0.463826  0  .  1
   Mg  Mg4  1  0.692099  0.889184  0.818637  0  .  1
   Mg  Mg5  1  0.307901  0.389184  0.681363  0  .  1
   Mg  Mg6  1  0.853055  0.878937  0.536174  0  .  1
   Mg  Mg7  1  0.146945  0.378937  0.963826  0  .  1
   Mg  Mg8  1  0.853055  0.621063  0.036174  0  .  1
   V  V9  1  0.359467  0.757936  0.530987  0  .  1
   V  V10  1  0.640533  0.257936  0.969013  0  .  1
   V  V11  1  0.807721  0.520653  0.685631  0  .  1
   V  V12  1  0.359467  0.742064  0.030987  0  .  1
   V  V13  1  0.192279  0.020653  0.814369  0  .  1
   V  V14  1  0.192279  0.479347  0.314369  0  .  1
   V  V15  1  0.640533  0.242064  0.469013  0  .  1
   V  V16  1  0.807721  0.979347  0.185631  0  .  1
   O  O17  1  0.851317  0.379149  0.002583  0  .  1
   O  O18  1  0.749454  0.858095  0.316047  0  .  1
   O  O19  1  0.676310  0.374171  0.347770  0  .  1
   O  O20  1  0.031143  0.076809  0.247429  0  .  1
   O  O21  1  0.250546  0.141905  0.683953  0  .  1
   O  O22  1  0.827223  0.867758  0.039371  0  .  1
   O  O23  1  0.851317  0.120851  0.502583  0  .  1
   O  O24  1  0.031143  0.423191  0.747429  0  .  1
   O  O25  1  0.428251  0.368781  0.898528  0  .  1
   O  O26  1  0.390320  0.870024  0.876467  0  .  1
   O  O27  1  0.148683  0.879149  0.497417  0  .  1
   O  O28  1  0.250546  0.358095  0.183953  0  .  1
   O  O29  1  0.827223  0.632242  0.539371  0  .  1
   O  O30  1  0.609680  0.129976  0.123533  0  .  1
   O  O31  1  0.172777  0.367758  0.460629  0  .  1
   O  O32  1  0.148683  0.620851  0.997417  0  .  1
   O  O33  1  0.968857  0.923191  0.752571  0  .  1
   O  O34  1  0.390320  0.629976  0.376467  0  .  1
   O  O35  1  0.428251  0.131219  0.398528  0  .  1
   O  O36  1  0.323690  0.874171  0.152230  0  .  1
   O  O37  1  0.968857  0.576809  0.252571  0  .  1
   O  O38  1  0.323690  0.625829  0.652230  0  .  1
   O  O39  1  0.609680  0.370024  0.623533  0  .  1
   O  O40  1  0.571749  0.868781  0.601472  0  .  1
   O  O41  1  0.749454  0.641905  0.816047  0  .  1
   O  O42  1  0.172777  0.132242  0.960629  0  .  1
   O  O43  1  0.571749  0.631219  0.101472  0  .  1
   O  O44  1  0.676310  0.125829  0.847770  0  .  1
 
