#\#CIF1.1
##########################################################################
#               Crystallographic Information Format file 
#               Produced by PyCifRW module
# 
#  This is a CIF file.  CIF has been adopted by the International
#  Union of Crystallography as the standard for data archiving and 
#  transmission.
#
#  For information on this file format, follow the CIF links at
#  http://www.iucr.org
##########################################################################

data_Mg3Fe4O7
_symmetry_space_group_name_H-M          'P 1'
_cell_length_a                          3.05948766248
_cell_length_b                          11.0356067719
_cell_length_c                          4.35863772209
_cell_angle_alpha                       101.108599805
_cell_angle_beta                        89.5272751209
_cell_angle_gamma                       82.6635568374
_chemical_name_systematic               'Generated by pymatgen'
_symmetry_Int_Tables_number             1
_chemical_formula_structural            Mg3Fe4O7
_chemical_formula_sum                   'Mg3 Fe4 O7'
_cell_volume                            143.140933591
_cell_formula_units_Z                   1
loop_
  _symmetry_equiv_pos_site_id
  _symmetry_equiv_pos_as_xyz
   1  'x, y, z'
 
loop_
  _atom_site_type_symbol
  _atom_site_label
  _atom_site_symmetry_multiplicity
  _atom_site_fract_x
  _atom_site_fract_y
  _atom_site_fract_z
  _atom_site_attached_hydrogens
  _atom_site_B_iso_or_equiv
  _atom_site_occupancy
   Mg  Mg1  1  0.002981  0.997084  0.000512  0  .  1
   Mg  Mg2  1  0.136360  0.715408  0.856352  0  .  1
   Mg  Mg3  1  0.285877  0.428557  0.709921  0  .  1
   Fe  Fe4  1  0.711216  0.570291  0.282930  0  .  1
   Fe  Fe5  1  0.566000  0.856768  0.428368  0  .  1
   Fe  Fe6  1  0.851727  0.281433  0.137031  0  .  1
   Fe  Fe7  1  0.417278  0.145795  0.571961  0  .  1
   O  O8  1  0.147985  0.714972  0.356348  0  .  1
   O  O9  1  0.274546  0.425199  0.207012  0  .  1
   O  O10  1  0.442307  0.134809  0.066708  0  .  1
   O  O11  1  0.710119  0.572103  0.783330  0  .  1
   O  O12  1  0.567770  0.854825  0.927861  0  .  1
   O  O13  1  0.972620  0.001195  0.503294  0  .  1
   O  O14  1  0.863246  0.292129  0.641875  0  .  1
 
