#\#CIF1.1
##########################################################################
#               Crystallographic Information Format file 
#               Produced by PyCifRW module
# 
#  This is a CIF file.  CIF has been adopted by the International
#  Union of Crystallography as the standard for data archiving and 
#  transmission.
#
#  For information on this file format, follow the CIF links at
#  http://www.iucr.org
##########################################################################

data_Mg4Cu11O15
_symmetry_space_group_name_H-M          'P 1'
_cell_length_a                          4.03951429
_cell_length_b                          9.4441286
_cell_length_c                          16.24108951
_cell_angle_alpha                       90.0
_cell_angle_beta                        90.0
_cell_angle_gamma                       90.0
_chemical_name_systematic               'Generated by pymatgen'
_symmetry_Int_Tables_number             1
_chemical_formula_structural            Mg4Cu11O15
_chemical_formula_sum                   'Mg8 Cu22 O30'
_cell_volume                            619.592569637
_cell_formula_units_Z                   2
loop_
  _symmetry_equiv_pos_site_id
  _symmetry_equiv_pos_as_xyz
   1  'x, y, z'
 
loop_
  _atom_site_type_symbol
  _atom_site_label
  _atom_site_symmetry_multiplicity
  _atom_site_fract_x
  _atom_site_fract_y
  _atom_site_fract_z
  _atom_site_attached_hydrogens
  _atom_site_B_iso_or_equiv
  _atom_site_occupancy
   Mg  Mg1  1  0.250000  0.250000  0.074082  0  .  1
   Mg  Mg2  1  0.250000  0.250000  0.273411  0  .  1
   Mg  Mg3  1  0.250000  0.250000  0.473564  0  .  1
   Mg  Mg4  1  0.250000  0.250000  0.673547  0  .  1
   Mg  Mg5  1  0.250000  0.250000  0.873663  0  .  1
   Mg  Mg6  1  0.750000  0.750000  0.125718  0  .  1
   Mg  Mg7  1  0.750000  0.750000  0.326858  0  .  1
   Mg  Mg8  1  0.750000  0.750000  0.727063  0  .  1
   Cu  Cu9  1  0.250000  0.584122  0.036059  0  .  1
   Cu  Cu10  1  0.250000  0.585532  0.234573  0  .  1
   Cu  Cu11  1  0.250000  0.585284  0.435107  0  .  1
   Cu  Cu12  1  0.250000  0.584250  0.636089  0  .  1
   Cu  Cu13  1  0.250000  0.585150  0.835407  0  .  1
   Cu  Cu14  1  0.250000  0.915878  0.036059  0  .  1
   Cu  Cu15  1  0.250000  0.914468  0.234573  0  .  1
   Cu  Cu16  1  0.250000  0.914716  0.435107  0  .  1
   Cu  Cu17  1  0.250000  0.915750  0.636089  0  .  1
   Cu  Cu18  1  0.250000  0.914850  0.835407  0  .  1
   Cu  Cu19  1  0.750000  0.084954  0.164670  0  .  1
   Cu  Cu20  1  0.750000  0.085499  0.362830  0  .  1
   Cu  Cu21  1  0.750000  0.085831  0.564911  0  .  1
   Cu  Cu22  1  0.750000  0.415046  0.164670  0  .  1
   Cu  Cu23  1  0.750000  0.085061  0.762561  0  .  1
   Cu  Cu24  1  0.750000  0.086051  0.965152  0  .  1
   Cu  Cu25  1  0.750000  0.414501  0.362830  0  .  1
   Cu  Cu26  1  0.750000  0.414169  0.564911  0  .  1
   Cu  Cu27  1  0.750000  0.750000  0.528880  0  .  1
   Cu  Cu28  1  0.750000  0.413949  0.965152  0  .  1
   Cu  Cu29  1  0.750000  0.414939  0.762561  0  .  1
   Cu  Cu30  1  0.750000  0.750000  0.928738  0  .  1
   O  O31  1  0.250000  0.095169  0.376926  0  .  1
   O  O32  1  0.250000  0.095388  0.576898  0  .  1
   O  O33  1  0.250000  0.095674  0.176728  0  .  1
   O  O34  1  0.250000  0.404831  0.376926  0  .  1
   O  O35  1  0.250000  0.404326  0.176728  0  .  1
   O  O36  1  0.250000  0.404612  0.576898  0  .  1
   O  O37  1  0.250000  0.750000  0.104148  0  .  1
   O  O38  1  0.250000  0.095187  0.777212  0  .  1
   O  O39  1  0.250000  0.750000  0.303744  0  .  1
   O  O40  1  0.250000  0.750000  0.503065  0  .  1
   O  O41  1  0.250000  0.095770  0.977239  0  .  1
   O  O42  1  0.250000  0.404813  0.777212  0  .  1
   O  O43  1  0.250000  0.750000  0.704239  0  .  1
   O  O44  1  0.250000  0.404230  0.977239  0  .  1
   O  O45  1  0.250000  0.750000  0.903236  0  .  1
   O  O46  1  0.750000  0.250000  0.095625  0  .  1
   O  O47  1  0.750000  0.250000  0.293736  0  .  1
   O  O48  1  0.750000  0.250000  0.495331  0  .  1
   O  O49  1  0.750000  0.591685  0.025728  0  .  1
   O  O50  1  0.750000  0.595908  0.223073  0  .  1
   O  O51  1  0.750000  0.908315  0.025728  0  .  1
   O  O52  1  0.750000  0.904092  0.223073  0  .  1
   O  O53  1  0.750000  0.250000  0.694099  0  .  1
   O  O54  1  0.750000  0.250000  0.895560  0  .  1
   O  O55  1  0.750000  0.592116  0.421637  0  .  1
   O  O56  1  0.750000  0.591484  0.625863  0  .  1
   O  O57  1  0.750000  0.907884  0.421637  0  .  1
   O  O58  1  0.750000  0.908516  0.625863  0  .  1
   O  O59  1  0.750000  0.592140  0.822184  0  .  1
   O  O60  1  0.750000  0.907860  0.822184  0  .  1
 
