#\#CIF1.1
##########################################################################
#               Crystallographic Information Format file 
#               Produced by PyCifRW module
# 
#  This is a CIF file.  CIF has been adopted by the International
#  Union of Crystallography as the standard for data archiving and 
#  transmission.
#
#  For information on this file format, follow the CIF links at
#  http://www.iucr.org
##########################################################################

data_Mg4Mn9O13
_symmetry_space_group_name_H-M          'P 1'
_cell_length_a                          3.1384703259
_cell_length_b                          3.1384703259
_cell_length_c                          33.4773578843
_cell_angle_alpha                       92.6866967927
_cell_angle_beta                        90.0
_cell_angle_gamma                       120.0
_chemical_name_systematic               'Generated by pymatgen'
_symmetry_Int_Tables_number             1
_chemical_formula_structural            Mg4Mn9O13
_chemical_formula_sum                   'Mg4 Mn9 O13'
_cell_volume                            285.154852264
_cell_formula_units_Z                   1
loop_
  _symmetry_equiv_pos_site_id
  _symmetry_equiv_pos_as_xyz
   1  'x, y, z'
 
loop_
  _atom_site_type_symbol
  _atom_site_label
  _atom_site_symmetry_multiplicity
  _atom_site_fract_x
  _atom_site_fract_y
  _atom_site_fract_z
  _atom_site_attached_hydrogens
  _atom_site_B_iso_or_equiv
  _atom_site_occupancy
   Mg  Mg1  1  0.154067  0.308132  0.462199  0  .  1
   Mg  Mg2  1  0.231230  0.462459  0.693689  0  .  1
   Mg  Mg3  1  0.615619  0.231240  0.846859  0  .  1
   Mg  Mg4  1  0.306755  0.613510  0.920264  0  .  1
   Mn  Mn5  1  0.998697  0.997395  0.996092  0  .  1
   Mn  Mn6  1  0.384418  0.768835  0.153254  0  .  1
   Mn  Mn7  1  0.691656  0.383313  0.074969  0  .  1
   Mn  Mn8  1  0.077054  0.154109  0.231163  0  .  1
   Mn  Mn9  1  0.462404  0.924808  0.387212  0  .  1
   Mn  Mn10  1  0.769691  0.539382  0.309073  0  .  1
   Mn  Mn11  1  0.845880  0.691759  0.537639  0  .  1
   Mn  Mn12  1  0.539062  0.078123  0.617185  0  .  1
   Mn  Mn13  1  0.923453  0.846906  0.770359  0  .  1
   O  O14  1  0.345215  0.690429  0.035644  0  .  1
   O  O15  1  0.038084  0.076167  0.114250  0  .  1
   O  O16  1  0.730751  0.461501  0.192251  0  .  1
   O  O17  1  0.423362  0.846724  0.270086  0  .  1
   O  O18  1  0.116028  0.232056  0.348085  0  .  1
   O  O19  1  0.808936  0.617873  0.426809  0  .  1
   O  O20  1  0.192432  0.384864  0.577296  0  .  1
   O  O21  1  0.499212  0.998424  0.497636  0  .  1
   O  O22  1  0.885858  0.771715  0.657574  0  .  1
   O  O23  1  0.576613  0.153226  0.729840  0  .  1
   O  O24  1  0.270293  0.540586  0.810879  0  .  1
   O  O25  1  0.961214  0.922428  0.883642  0  .  1
   O  O26  1  0.652018  0.304035  0.956053  0  .  1
 
