#\#CIF1.1
##########################################################################
#               Crystallographic Information Format file 
#               Produced by PyCifRW module
# 
#  This is a CIF file.  CIF has been adopted by the International
#  Union of Crystallography as the standard for data archiving and 
#  transmission.
#
#  For information on this file format, follow the CIF links at
#  http://www.iucr.org
##########################################################################

data_Mg7Cu17O24
_symmetry_space_group_name_H-M          'P 1'
_cell_length_a                          8.08846072048
_cell_length_b                          9.42752559648
_cell_length_c                          6.47254129665
_cell_angle_alpha                       90.0126539505
_cell_angle_beta                        90.008148301
_cell_angle_gamma                       90.0005530832
_chemical_name_systematic               'Generated by pymatgen'
_symmetry_Int_Tables_number             1
_chemical_formula_structural            Mg7Cu17O24
_chemical_formula_sum                   'Mg7 Cu17 O24'
_cell_volume                            493.558250412
_cell_formula_units_Z                   1
loop_
  _symmetry_equiv_pos_site_id
  _symmetry_equiv_pos_as_xyz
   1  'x, y, z'
 
loop_
  _atom_site_type_symbol
  _atom_site_label
  _atom_site_symmetry_multiplicity
  _atom_site_fract_x
  _atom_site_fract_y
  _atom_site_fract_z
  _atom_site_attached_hydrogens
  _atom_site_B_iso_or_equiv
  _atom_site_occupancy
   Mg  Mg1  1  0.125828  0.250020  0.184845  0  .  1
   Mg  Mg2  1  0.124625  0.249999  0.684737  0  .  1
   Mg  Mg3  1  0.374946  0.749980  0.315125  0  .  1
   Mg  Mg4  1  0.374969  0.750002  0.814428  0  .  1
   Mg  Mg5  1  0.624176  0.249998  0.184858  0  .  1
   Mg  Mg6  1  0.625369  0.249989  0.684679  0  .  1
   Mg  Mg7  1  0.875084  0.750001  0.317405  0  .  1
   Cu  Cu8  1  0.124624  0.585150  0.085659  0  .  1
   Cu  Cu9  1  0.123727  0.585143  0.584733  0  .  1
   Cu  Cu10  1  0.124617  0.914831  0.085656  0  .  1
   Cu  Cu11  1  0.123770  0.914865  0.584709  0  .  1
   Cu  Cu12  1  0.375026  0.085146  0.416028  0  .  1
   Cu  Cu13  1  0.375059  0.085410  0.915599  0  .  1
   Cu  Cu14  1  0.375056  0.414841  0.416043  0  .  1
   Cu  Cu15  1  0.375013  0.414609  0.915600  0  .  1
   Cu  Cu16  1  0.625235  0.585220  0.085588  0  .  1
   Cu  Cu17  1  0.626268  0.585200  0.584709  0  .  1
   Cu  Cu18  1  0.625243  0.914792  0.085660  0  .  1
   Cu  Cu19  1  0.626226  0.914790  0.584575  0  .  1
   Cu  Cu20  1  0.875033  0.085684  0.407274  0  .  1
   Cu  Cu21  1  0.875084  0.086219  0.915101  0  .  1
   Cu  Cu22  1  0.875016  0.414317  0.407268  0  .  1
   Cu  Cu23  1  0.875111  0.413740  0.915184  0  .  1
   Cu  Cu24  1  0.874864  0.749956  0.822305  0  .  1
   O  O25  1  0.125104  0.096263  0.939842  0  .  1
   O  O26  1  0.124968  0.403658  0.939797  0  .  1
   O  O27  1  0.123910  0.096267  0.440071  0  .  1
   O  O28  1  0.123983  0.403686  0.440066  0  .  1
   O  O29  1  0.124930  0.750082  0.260479  0  .  1
   O  O30  1  0.119369  0.750040  0.757562  0  .  1
   O  O31  1  0.374998  0.249983  0.238557  0  .  1
   O  O32  1  0.375021  0.249969  0.739169  0  .  1
   O  O33  1  0.375535  0.597732  0.058398  0  .  1
   O  O34  1  0.375024  0.597754  0.562922  0  .  1
   O  O35  1  0.375063  0.902295  0.058369  0  .  1
   O  O36  1  0.375221  0.902275  0.562937  0  .  1
   O  O37  1  0.624919  0.096304  0.939848  0  .  1
   O  O38  1  0.626085  0.096277  0.440011  0  .  1
   O  O39  1  0.626014  0.403585  0.440011  0  .  1
   O  O40  1  0.625046  0.403870  0.939928  0  .  1
   O  O41  1  0.625096  0.749863  0.260083  0  .  1
   O  O42  1  0.630631  0.750141  0.757511  0  .  1
   O  O43  1  0.875001  0.249964  0.233518  0  .  1
   O  O44  1  0.874990  0.250007  0.738779  0  .  1
   O  O45  1  0.874431  0.590470  0.071406  0  .  1
   O  O46  1  0.874983  0.591450  0.555772  0  .  1
   O  O47  1  0.874908  0.909518  0.071382  0  .  1
   O  O48  1  0.874803  0.908643  0.555814  0  .  1
 
