#\#CIF1.1
##########################################################################
#               Crystallographic Information Format file 
#               Produced by PyCifRW module
# 
#  This is a CIF file.  CIF has been adopted by the International
#  Union of Crystallography as the standard for data archiving and 
#  transmission.
#
#  For information on this file format, follow the CIF links at
#  http://www.iucr.org
##########################################################################

data_Mg8Mn3O11
_symmetry_space_group_name_H-M          'P 1'
_cell_length_a                          3.05843982485
_cell_length_b                          3.05843982485
_cell_length_c                          27.6406154161
_cell_angle_alpha                       90.0
_cell_angle_beta                        93.171515758
_cell_angle_gamma                       120.0
_chemical_name_systematic               'Generated by pymatgen'
_symmetry_Int_Tables_number             1
_chemical_formula_structural            Mg8Mn3O11
_chemical_formula_sum                   'Mg8 Mn3 O11'
_cell_volume                            223.455060468
_cell_formula_units_Z                   1
loop_
  _symmetry_equiv_pos_site_id
  _symmetry_equiv_pos_as_xyz
   1  'x, y, z'
 
loop_
  _atom_site_type_symbol
  _atom_site_label
  _atom_site_symmetry_multiplicity
  _atom_site_fract_x
  _atom_site_fract_y
  _atom_site_fract_z
  _atom_site_attached_hydrogens
  _atom_site_B_iso_or_equiv
  _atom_site_occupancy
   Mg  Mg1  1  0.453670  0.726835  0.180504  0  .  1
   Mg  Mg2  1  0.728129  0.364065  0.092195  0  .  1
   Mg  Mg3  1  0.909967  0.454983  0.364951  0  .  1
   Mg  Mg4  1  0.635507  0.817753  0.453259  0  .  1
   Mg  Mg5  1  0.092367  0.546184  0.638551  0  .  1
   Mg  Mg6  1  0.818627  0.909314  0.727941  0  .  1
   Mg  Mg7  1  0.545009  0.272504  0.817513  0  .  1
   Mg  Mg8  1  0.271269  0.635634  0.906903  0  .  1
   Mn  Mn9  1  0.999849  0.999924  0.999774  0  .  1
   Mn  Mn10  1  0.181818  0.090909  0.272727  0  .  1
   Mn  Mn11  1  0.363788  0.181894  0.545681  0  .  1
   O  O12  1  0.365974  0.682987  0.048961  0  .  1
   O  O13  1  0.090907  0.045453  0.136360  0  .  1
   O  O14  1  0.547837  0.773919  0.321755  0  .  1
   O  O15  1  0.815799  0.407899  0.223699  0  .  1
   O  O16  1  0.272729  0.136365  0.409094  0  .  1
   O  O17  1  0.997663  0.498831  0.496493  0  .  1
   O  O18  1  0.729953  0.864977  0.594930  0  .  1
   O  O19  1  0.455461  0.227731  0.683192  0  .  1
   O  O20  1  0.181818  0.590909  0.772727  0  .  1
   O  O21  1  0.908175  0.954087  0.862262  0  .  1
   O  O22  1  0.633683  0.316842  0.950525  0  .  1
 
