#\#CIF1.1
##########################################################################
#               Crystallographic Information Format file 
#               Produced by PyCifRW module
# 
#  This is a CIF file.  CIF has been adopted by the International
#  Union of Crystallography as the standard for data archiving and 
#  transmission.
#
#  For information on this file format, follow the CIF links at
#  http://www.iucr.org
##########################################################################

data_Mg9CuO10
_symmetry_space_group_name_H-M          'P 1'
_cell_length_a                          3.0253330756
_cell_length_b                          10.0142451268
_cell_length_c                          6.68122628315
_cell_angle_alpha                       78.7316381949
_cell_angle_beta                        76.9963118739
_cell_angle_gamma                       89.6589573745
_chemical_name_systematic               'Generated by pymatgen'
_symmetry_Int_Tables_number             1
_chemical_formula_structural            Mg9CuO10
_chemical_formula_sum                   'Mg9 Cu1 O10'
_cell_volume                            193.271287052
_cell_formula_units_Z                   1
loop_
  _symmetry_equiv_pos_site_id
  _symmetry_equiv_pos_as_xyz
   1  'x, y, z'
 
loop_
  _atom_site_type_symbol
  _atom_site_label
  _atom_site_symmetry_multiplicity
  _atom_site_fract_x
  _atom_site_fract_y
  _atom_site_fract_z
  _atom_site_attached_hydrogens
  _atom_site_B_iso_or_equiv
  _atom_site_occupancy
   Mg  Mg1  1  0.602893  0.800633  0.799311  0  .  1
   Mg  Mg2  1  0.205512  0.602463  0.597526  0  .  1
   Mg  Mg3  1  0.299105  0.900691  0.401039  0  .  1
   Mg  Mg4  1  0.699888  0.100098  0.603794  0  .  1
   Mg  Mg5  1  0.905109  0.699887  0.198739  0  .  1
   Mg  Mg6  1  0.805164  0.401027  0.404097  0  .  1
   Mg  Mg7  1  0.509561  0.500338  0.994826  0  .  1
   Mg  Mg8  1  0.408968  0.199099  0.195260  0  .  1
   Mg  Mg9  1  0.001596  0.998462  0.001953  0  .  1
   Cu  Cu10  1  0.108529  0.300895  0.799537  0  .  1
   O  O11  1  0.055376  0.651039  0.898697  0  .  1
   O  O12  1  0.151098  0.949691  0.699953  0  .  1
   O  O13  1  0.661640  0.458796  0.693502  0  .  1
   O  O14  1  0.548313  0.142301  0.904879  0  .  1
   O  O15  1  0.751419  0.751361  0.498537  0  .  1
   O  O16  1  0.254569  0.251020  0.501233  0  .  1
   O  O17  1  0.357418  0.549358  0.297171  0  .  1
   O  O18  1  0.452306  0.849697  0.101302  0  .  1
   O  O19  1  0.852348  0.050829  0.302155  0  .  1
   O  O20  1  0.958905  0.349304  0.097427  0  .  1
 
