#\#CIF1.1
##########################################################################
#               Crystallographic Information Format file 
#               Produced by PyCifRW module
# 
#  This is a CIF file.  CIF has been adopted by the International
#  Union of Crystallography as the standard for data archiving and 
#  transmission.
#
#  For information on this file format, follow the CIF links at
#  http://www.iucr.org
##########################################################################

data_MgCoO3
_symmetry_space_group_name_H-M          'P 1'
_cell_length_a                          4.92590079008
_cell_length_b                          4.92590063892
_cell_length_c                          5.35634353052
_cell_angle_alpha                       62.6245592572
_cell_angle_beta                        117.375446265
_cell_angle_gamma                       119.999999844
_chemical_name_systematic               'Generated by pymatgen'
_symmetry_Int_Tables_number             1
_chemical_formula_structural            MgCoO3
_chemical_formula_sum                   'Mg2 Co2 O6'
_cell_volume                            95.3804370524
_cell_formula_units_Z                   2
loop_
  _symmetry_equiv_pos_site_id
  _symmetry_equiv_pos_as_xyz
   1  'x, y, z'
 
loop_
  _atom_site_type_symbol
  _atom_site_label
  _atom_site_symmetry_multiplicity
  _atom_site_fract_x
  _atom_site_fract_y
  _atom_site_fract_z
  _atom_site_attached_hydrogens
  _atom_site_B_iso_or_equiv
  _atom_site_occupancy
   Mg  Mg1  1  0.639608  0.360392  0.918824  0  .  1
   Mg  Mg2  1  0.360392  0.639608  0.081176  0  .  1
   Co  Co3  1  0.839577  0.160423  0.518733  0  .  1
   Co  Co4  1  0.160423  0.839577  0.481267  0  .  1
   O  O5  1  0.957490  0.787190  0.730576  0  .  1
   O  O6  1  0.560275  0.042510  0.730576  0  .  1
   O  O7  1  0.212810  0.439725  0.730576  0  .  1
   O  O8  1  0.787190  0.560275  0.269424  0  .  1
   O  O9  1  0.439725  0.957490  0.269424  0  .  1
   O  O10  1  0.042510  0.212810  0.269424  0  .  1
 
