#\#CIF1.1
##########################################################################
#               Crystallographic Information Format file 
#               Produced by PyCifRW module
# 
#  This is a CIF file.  CIF has been adopted by the International
#  Union of Crystallography as the standard for data archiving and 
#  transmission.
#
#  For information on this file format, follow the CIF links at
#  http://www.iucr.org
##########################################################################

data_MgCr2O4
_symmetry_space_group_name_H-M          'P 1'
_cell_length_a                          6.00383764309
_cell_length_b                          6.00383764401
_cell_length_c                          6.00383765
_cell_angle_alpha                       60.0000000221
_cell_angle_beta                        60.000000017
_cell_angle_gamma                       60.0000000164
_chemical_name_systematic               'Generated by pymatgen'
_symmetry_Int_Tables_number             1
_chemical_formula_structural            MgCr2O4
_chemical_formula_sum                   'Mg2 Cr4 O8'
_cell_volume                            153.028323823
_cell_formula_units_Z                   2
loop_
  _symmetry_equiv_pos_site_id
  _symmetry_equiv_pos_as_xyz
   1  'x, y, z'
 
loop_
  _atom_site_type_symbol
  _atom_site_label
  _atom_site_symmetry_multiplicity
  _atom_site_fract_x
  _atom_site_fract_y
  _atom_site_fract_z
  _atom_site_attached_hydrogens
  _atom_site_B_iso_or_equiv
  _atom_site_occupancy
   O  O1  1  0.738963  0.738963  0.738963  0  .  1
   O  O2  1  0.261037  0.261037  0.716889  0  .  1
   O  O3  1  0.261037  0.716889  0.261037  0  .  1
   O  O4  1  0.716889  0.261037  0.261037  0  .  1
   O  O5  1  0.738963  0.283111  0.738963  0  .  1
   O  O6  1  0.283111  0.738963  0.738963  0  .  1
   O  O7  1  0.261037  0.261037  0.261037  0  .  1
   O  O8  1  0.738963  0.738963  0.283111  0  .  1
   Mg  Mg9  1  0.125000  0.125000  0.125000  0  .  1
   Mg  Mg10  1  0.875000  0.875000  0.875000  0  .  1
   Cr  Cr11  1  0.500000  0.500000  0.000000  0  .  1
   Cr  Cr12  1  0.500000  0.500000  0.500000  0  .  1
   Cr  Cr13  1  0.000000  0.500000  0.500000  0  .  1
   Cr  Cr14  1  0.500000  0.000000  0.500000  0  .  1
 
