#\#CIF1.1
##########################################################################
#               Crystallographic Information Format file 
#               Produced by PyCifRW module
# 
#  This is a CIF file.  CIF has been adopted by the International
#  Union of Crystallography as the standard for data archiving and 
#  transmission.
#
#  For information on this file format, follow the CIF links at
#  http://www.iucr.org
##########################################################################

data_MgFe11O18
_symmetry_space_group_name_H-M          'P 1'
_cell_length_a                          5.49697731465
_cell_length_b                          8.90357392935
_cell_length_c                          7.53401376295
_cell_angle_alpha                       66.7251425244
_cell_angle_beta                        95.3166447401
_cell_angle_gamma                       74.2421715429
_chemical_name_systematic               'Generated by pymatgen'
_symmetry_Int_Tables_number             1
_chemical_formula_structural            MgFe11O18
_chemical_formula_sum                   'Mg1 Fe11 O18'
_cell_volume                            317.54912213
_cell_formula_units_Z                   1
loop_
  _symmetry_equiv_pos_site_id
  _symmetry_equiv_pos_as_xyz
   1  'x, y, z'
 
loop_
  _atom_site_type_symbol
  _atom_site_label
  _atom_site_symmetry_multiplicity
  _atom_site_fract_x
  _atom_site_fract_y
  _atom_site_fract_z
  _atom_site_attached_hydrogens
  _atom_site_B_iso_or_equiv
  _atom_site_occupancy
   Mg  Mg1  1  0.285870  -0.000314  0.857209  0  .  1
   Fe  Fe2  1  0.296361  0.998438  0.353847  0  .  1
   Fe  Fe3  1  0.704881  0.000256  0.144106  0  .  1
   Fe  Fe4  1  0.041965  0.331391  0.483064  0  .  1
   Fe  Fe5  1  0.630040  0.332615  0.187015  0  .  1
   Fe  Fe6  1  0.700542  -0.001062  0.652085  0  .  1
   Fe  Fe7  1  0.372910  0.668962  0.311027  0  .  1
   Fe  Fe8  1  0.628663  0.332846  0.688964  0  .  1
   Fe  Fe9  1  0.955196  0.667247  0.017673  0  .  1
   Fe  Fe10  1  0.041715  0.332618  0.977023  0  .  1
   Fe  Fe11  1  0.960340  0.666929  0.519786  0  .  1
   Fe  Fe12  1  0.369123  0.668884  0.814179  0  .  1
   O  O13  1  0.401985  0.202665  0.145961  0  .  1
   O  O14  1  0.302789  0.102630  0.543597  0  .  1
   O  O15  1  0.935462  0.130684  0.182831  0  .  1
   O  O16  1  0.368698  0.565885  0.117957  0  .  1
   O  O17  1  0.030705  0.239613  0.780998  0  .  1
   O  O18  1  0.734831  0.230480  0.482702  0  .  1
   O  O19  1  0.935626  0.432799  0.185834  0  .  1
   O  O20  1  0.606965  0.101568  0.851100  0  .  1
   O  O21  1  0.267732  0.465350  0.515542  0  .  1
   O  O22  1  0.731717  0.537043  0.479432  0  .  1
   O  O23  1  0.404518  0.896534  0.157649  0  .  1
   O  O24  1  0.067652  0.563110  0.815159  0  .  1
   O  O25  1  0.267774  0.766629  0.519297  0  .  1
   O  O26  1  0.629758  0.436481  0.881720  0  .  1
   O  O27  1  0.965560  0.768446  0.213887  0  .  1
   O  O28  1  0.705219  0.900029  0.455119  0  .  1
   O  O29  1  0.055742  0.865366  0.813389  0  .  1
   O  O30  1  0.599660  0.795880  0.851847  0  .  1
 
