#\#CIF1.1
##########################################################################
#               Crystallographic Information Format file 
#               Produced by PyCifRW module
# 
#  This is a CIF file.  CIF has been adopted by the International
#  Union of Crystallography as the standard for data archiving and 
#  transmission.
#
#  For information on this file format, follow the CIF links at
#  http://www.iucr.org
##########################################################################

data_MgFe2O5
_symmetry_space_group_name_H-M          'P 1'
_cell_length_a                          5.2554284595
_cell_length_b                          5.2554284595
_cell_length_c                          9.7559365
_cell_angle_alpha                       90.0
_cell_angle_beta                        90.0
_cell_angle_gamma                       43.778833899
_chemical_name_systematic               'Generated by pymatgen'
_symmetry_Int_Tables_number             1
_chemical_formula_structural            MgFe2O5
_chemical_formula_sum                   'Mg2 Fe4 O10'
_cell_volume                            186.429141141
_cell_formula_units_Z                   2
loop_
  _symmetry_equiv_pos_site_id
  _symmetry_equiv_pos_as_xyz
   1  'x, y, z'
 
loop_
  _atom_site_type_symbol
  _atom_site_label
  _atom_site_symmetry_multiplicity
  _atom_site_fract_x
  _atom_site_fract_y
  _atom_site_fract_z
  _atom_site_attached_hydrogens
  _atom_site_B_iso_or_equiv
  _atom_site_occupancy
   Mg  Mg1  1  0.204703  0.204703  0.250000  0  .  1
   Mg  Mg2  1  0.795297  0.795297  0.750000  0  .  1
   Fe  Fe3  1  0.138639  0.138639  0.561157  0  .  1
   Fe  Fe4  1  0.138639  0.138639  0.938843  0  .  1
   Fe  Fe5  1  0.861361  0.861361  0.061157  0  .  1
   Fe  Fe6  1  0.861361  0.861361  0.438843  0  .  1
   O  O7  1  0.046741  0.046741  0.114663  0  .  1
   O  O8  1  0.046741  0.046741  0.385337  0  .  1
   O  O9  1  0.309522  0.309522  0.056590  0  .  1
   O  O10  1  0.309522  0.309522  0.443410  0  .  1
   O  O11  1  0.784790  0.784790  0.250000  0  .  1
   O  O12  1  0.215210  0.215210  0.750000  0  .  1
   O  O13  1  0.690478  0.690478  0.556590  0  .  1
   O  O14  1  0.953259  0.953259  0.614663  0  .  1
   O  O15  1  0.690478  0.690478  0.943410  0  .  1
   O  O16  1  0.953259  0.953259  0.885337  0  .  1
 
