#\#CIF1.1
##########################################################################
#               Crystallographic Information Format file 
#               Produced by PyCifRW module
# 
#  This is a CIF file.  CIF has been adopted by the International
#  Union of Crystallography as the standard for data archiving and 
#  transmission.
#
#  For information on this file format, follow the CIF links at
#  http://www.iucr.org
##########################################################################

data_MgMnO3
_symmetry_space_group_name_H-M          'P 1'
_cell_length_a                          5.46312194111
_cell_length_b                          5.46312175416
_cell_length_c                          5.46312197655
_cell_angle_alpha                       54.6983466231
_cell_angle_beta                        54.698341031
_cell_angle_gamma                       54.6983467014
_chemical_name_systematic               'Generated by pymatgen'
_symmetry_Int_Tables_number             1
_chemical_formula_structural            MgMnO3
_chemical_formula_sum                   'Mg2 Mn2 O6'
_cell_volume                            101.055001122
_cell_formula_units_Z                   2
loop_
  _symmetry_equiv_pos_site_id
  _symmetry_equiv_pos_as_xyz
   1  'x, y, z'
 
loop_
  _atom_site_type_symbol
  _atom_site_label
  _atom_site_symmetry_multiplicity
  _atom_site_fract_x
  _atom_site_fract_y
  _atom_site_fract_z
  _atom_site_attached_hydrogens
  _atom_site_B_iso_or_equiv
  _atom_site_occupancy
   Mg  Mg1  1  0.140476  0.140476  0.140476  0  .  1
   Mg  Mg2  1  0.859524  0.859524  0.859524  0  .  1
   Mn  Mn3  1  0.342297  0.342297  0.342297  0  .  1
   Mn  Mn4  1  0.657703  0.657703  0.657703  0  .  1
   O  O5  1  0.059715  0.721621  0.453522  0  .  1
   O  O6  1  0.453522  0.059715  0.721621  0  .  1
   O  O7  1  0.721621  0.453522  0.059715  0  .  1
   O  O8  1  0.278379  0.546478  0.940285  0  .  1
   O  O9  1  0.546478  0.940285  0.278379  0  .  1
   O  O10  1  0.940285  0.278379  0.546478  0  .  1
 
