#\#CIF1.1
##########################################################################
#               Crystallographic Information Format file 
#               Produced by PyCifRW module
# 
#  This is a CIF file.  CIF has been adopted by the International
#  Union of Crystallography as the standard for data archiving and 
#  transmission.
#
#  For information on this file format, follow the CIF links at
#  http://www.iucr.org
##########################################################################

data_MgTi5O10
_symmetry_space_group_name_H-M          'P 1'
_cell_length_a                          5.26818885717
_cell_length_b                          7.5552409239
_cell_length_c                          10.06509604
_cell_angle_alpha                       90.0
_cell_angle_beta                        90.0
_cell_angle_gamma                       109.370908155
_chemical_name_systematic               'Generated by pymatgen'
_symmetry_Int_Tables_number             1
_chemical_formula_structural            MgTi5O10
_chemical_formula_sum                   'Mg2 Ti10 O20'
_cell_volume                            377.936983973
_cell_formula_units_Z                   2
loop_
  _symmetry_equiv_pos_site_id
  _symmetry_equiv_pos_as_xyz
   1  'x, y, z'
 
loop_
  _atom_site_type_symbol
  _atom_site_label
  _atom_site_symmetry_multiplicity
  _atom_site_fract_x
  _atom_site_fract_y
  _atom_site_fract_z
  _atom_site_attached_hydrogens
  _atom_site_B_iso_or_equiv
  _atom_site_occupancy
   Mg  Mg1  1  0.291486  0.902965  0.750000  0  .  1
   Mg  Mg2  1  0.208514  0.597035  0.250000  0  .  1
   Ti  Ti3  1  0.204950  0.928906  0.438836  0  .  1
   Ti  Ti4  1  0.204950  0.928906  0.061164  0  .  1
   Ti  Ti5  1  0.295050  0.571094  0.938836  0  .  1
   Ti  Ti6  1  0.295050  0.571094  0.561164  0  .  1
   Ti  Ti7  1  0.703938  0.433626  0.436008  0  .  1
   Ti  Ti8  1  0.703938  0.433626  0.063992  0  .  1
   Ti  Ti9  1  0.794179  0.403837  0.750000  0  .  1
   Ti  Ti10  1  0.705821  0.096163  0.250000  0  .  1
   Ti  Ti11  1  0.796062  0.066374  0.563992  0  .  1
   Ti  Ti12  1  0.796062  0.066374  0.936008  0  .  1
   O  O13  1  0.067589  0.978293  0.612106  0  .  1
   O  O14  1  0.067589  0.978293  0.887894  0  .  1
   O  O15  1  0.031065  0.654339  0.067770  0  .  1
   O  O16  1  0.031065  0.654339  0.432230  0  .  1
   O  O17  1  0.346419  0.893449  0.250000  0  .  1
   O  O18  1  0.153581  0.606551  0.750000  0  .  1
   O  O19  1  0.468935  0.845661  0.567770  0  .  1
   O  O20  1  0.468935  0.845661  0.932230  0  .  1
   O  O21  1  0.432411  0.521707  0.387894  0  .  1
   O  O22  1  0.432411  0.521707  0.112106  0  .  1
   O  O23  1  0.572905  0.474870  0.619063  0  .  1
   O  O24  1  0.572905  0.474870  0.880937  0  .  1
   O  O25  1  0.535403  0.156547  0.069714  0  .  1
   O  O26  1  0.535403  0.156547  0.430286  0  .  1
   O  O27  1  0.834144  0.378043  0.250000  0  .  1
   O  O28  1  0.665856  0.121957  0.750000  0  .  1
   O  O29  1  0.964597  0.343453  0.930286  0  .  1
   O  O30  1  0.964597  0.343453  0.569714  0  .  1
   O  O31  1  0.927095  0.025130  0.380937  0  .  1
   O  O32  1  0.927095  0.025130  0.119063  0  .  1
 
