#\#CIF1.1
##########################################################################
#               Crystallographic Information Format file 
#               Produced by PyCifRW module
# 
#  This is a CIF file.  CIF has been adopted by the International
#  Union of Crystallography as the standard for data archiving and 
#  transmission.
#
#  For information on this file format, follow the CIF links at
#  http://www.iucr.org
##########################################################################

data_MgTi14O25
_symmetry_space_group_name_H-M          'P 1'
_cell_length_a                          9.88898466649
_cell_length_b                          10.7335578346
_cell_length_c                          11.3305143615
_cell_angle_alpha                       69.7249418703
_cell_angle_beta                        64.6309309556
_cell_angle_gamma                       62.5898899306
_chemical_name_systematic               'Generated by pymatgen'
_symmetry_Int_Tables_number             1
_chemical_formula_structural            MgTi14O25
_chemical_formula_sum                   'Mg2 Ti28 O50'
_cell_volume                            947.835597296
_cell_formula_units_Z                   2
loop_
  _symmetry_equiv_pos_site_id
  _symmetry_equiv_pos_as_xyz
   1  'x, y, z'
 
loop_
  _atom_site_type_symbol
  _atom_site_label
  _atom_site_symmetry_multiplicity
  _atom_site_fract_x
  _atom_site_fract_y
  _atom_site_fract_z
  _atom_site_attached_hydrogens
  _atom_site_B_iso_or_equiv
  _atom_site_occupancy
   Mg  Mg1  1  0.096095  0.449869  0.750493  0  .  1
   Mg  Mg2  1  0.703905  0.950131  0.249507  0  .  1
   Ti  Ti3  1  0.105618  0.151384  0.247959  0  .  1
   Ti  Ti4  1  0.042580  0.088344  0.560483  0  .  1
   Ti  Ti5  1  0.160987  0.511780  0.440125  0  .  1
   Ti  Ti6  1  0.361778  0.111362  0.437562  0  .  1
   Ti  Ti7  1  0.310295  0.587805  0.056645  0  .  1
   Ti  Ti8  1  0.510145  0.186935  0.058683  0  .  1
   Ti  Ti9  1  0.108263  0.988588  0.057816  0  .  1
   Ti  Ti10  1  0.295411  0.051604  0.750320  0  .  1
   Ti  Ti11  1  0.306015  0.749831  0.248339  0  .  1
   Ti  Ti12  1  0.504589  0.348396  0.249680  0  .  1
   Ti  Ti13  1  0.091078  0.609486  0.941860  0  .  1
   Ti  Ti14  1  0.289855  0.213065  0.941317  0  .  1
   Ti  Ti15  1  0.239889  0.686358  0.563675  0  .  1
   Ti  Ti16  1  0.438222  0.288638  0.562438  0  .  1
   Ti  Ti17  1  0.560111  0.713642  0.436325  0  .  1
   Ti  Ti18  1  0.757420  0.311656  0.439517  0  .  1
   Ti  Ti19  1  0.708922  0.790514  0.058140  0  .  1
   Ti  Ti20  1  0.910280  0.388623  0.057373  0  .  1
   Ti  Ti21  1  0.493985  0.650169  0.751661  0  .  1
   Ti  Ti22  1  0.694382  0.248616  0.752041  0  .  1
   Ti  Ti23  1  0.904462  0.551498  0.248042  0  .  1
   Ti  Ti24  1  0.889720  0.011377  0.942627  0  .  1
   Ti  Ti25  1  0.691737  0.411412  0.942184  0  .  1
   Ti  Ti26  1  0.489705  0.812195  0.943355  0  .  1
   Ti  Ti27  1  0.841761  0.487102  0.562310  0  .  1
   Ti  Ti28  1  0.639013  0.888220  0.559875  0  .  1
   Ti  Ti29  1  0.958239  0.912898  0.437690  0  .  1
   Ti  Ti30  1  0.895538  0.848502  0.751958  0  .  1
   O  O31  1  0.056651  0.185658  0.068572  0  .  1
   O  O32  1  0.197495  0.124129  0.381519  0  .  1
   O  O33  1  0.101273  0.576088  0.123411  0  .  1
   O  O34  1  0.302212  0.175521  0.123176  0  .  1
   O  O35  1  0.097377  0.025163  0.877011  0  .  1
   O  O36  1  0.000778  0.478239  0.611577  0  .  1
   O  O37  1  0.202390  0.076192  0.619015  0  .  1
   O  O38  1  0.256523  0.787202  0.067781  0  .  1
   O  O39  1  0.456428  0.386600  0.067373  0  .  1
   O  O40  1  0.116533  0.715534  0.428031  0  .  1
   O  O41  1  0.313864  0.314254  0.430339  0  .  1
   O  O42  1  0.332755  0.549700  0.248799  0  .  1
   O  O43  1  0.132570  0.950123  0.250107  0  .  1
   O  O44  1  0.526150  0.155985  0.249978  0  .  1
   O  O45  1  0.067443  0.656504  0.749415  0  .  1
   O  O46  1  0.273850  0.244015  0.750022  0  .  1
   O  O47  1  0.284532  0.486674  0.568139  0  .  1
   O  O48  1  0.486136  0.085746  0.569661  0  .  1
   O  O49  1  0.082357  0.886720  0.570456  0  .  1
   O  O50  1  0.140143  0.413389  0.934500  0  .  1
   O  O51  1  0.343572  0.013400  0.932627  0  .  1
   O  O52  1  0.398236  0.722322  0.382561  0  .  1
   O  O53  1  0.597610  0.323808  0.380985  0  .  1
   O  O54  1  0.502753  0.775076  0.123597  0  .  1
   O  O55  1  0.702623  0.374837  0.122989  0  .  1
   O  O56  1  0.297247  0.624924  0.876403  0  .  1
   O  O57  1  0.497788  0.224479  0.876824  0  .  1
   O  O58  1  0.401764  0.677678  0.617439  0  .  1
   O  O59  1  0.602505  0.275871  0.618481  0  .  1
   O  O60  1  0.659857  0.986611  0.065500  0  .  1
   O  O61  1  0.856196  0.586429  0.068136  0  .  1
   O  O62  1  0.915508  0.113988  0.428483  0  .  1
   O  O63  1  0.717643  0.513280  0.429544  0  .  1
   O  O64  1  0.515468  0.913326  0.431861  0  .  1
   O  O65  1  0.732557  0.743496  0.250585  0  .  1
   O  O66  1  0.934559  0.350429  0.251269  0  .  1
   O  O67  1  0.865441  0.049571  0.748731  0  .  1
   O  O68  1  0.467245  0.850300  0.751201  0  .  1
   O  O69  1  0.667430  0.449877  0.749893  0  .  1
   O  O70  1  0.683467  0.684466  0.571969  0  .  1
   O  O71  1  0.884492  0.286012  0.571517  0  .  1
   O  O72  1  0.543477  0.612798  0.932219  0  .  1
   O  O73  1  0.743349  0.214342  0.931428  0  .  1
   O  O74  1  0.799222  0.921761  0.388423  0  .  1
   O  O75  1  0.997120  0.524007  0.382233  0  .  1
   O  O76  1  0.907782  0.976979  0.116476  0  .  1
   O  O77  1  0.698727  0.823912  0.876589  0  .  1
   O  O78  1  0.892218  0.423021  0.883524  0  .  1
   O  O79  1  0.802880  0.875993  0.617767  0  .  1
   O  O80  1  0.943804  0.813571  0.931864  0  .  1
 
