#\#CIF1.1
##########################################################################
#               Crystallographic Information Format file 
#               Produced by PyCifRW module
# 
#  This is a CIF file.  CIF has been adopted by the International
#  Union of Crystallography as the standard for data archiving and 
#  transmission.
#
#  For information on this file format, follow the CIF links at
#  http://www.iucr.org
##########################################################################

data_MgTi11O20
_symmetry_space_group_name_H-M          'P 1'
_cell_length_a                          10.5980851172
_cell_length_b                          7.56104739627
_cell_length_c                          10.04690817
_cell_angle_alpha                       90.0
_cell_angle_beta                        90.0
_cell_angle_gamma                       109.733008926
_chemical_name_systematic               'Generated by pymatgen'
_symmetry_Int_Tables_number             1
_chemical_formula_structural            MgTi11O20
_chemical_formula_sum                   'Mg2 Ti22 O40'
_cell_volume                            757.807442784
_cell_formula_units_Z                   2
loop_
  _symmetry_equiv_pos_site_id
  _symmetry_equiv_pos_as_xyz
   1  'x, y, z'
 
loop_
  _atom_site_type_symbol
  _atom_site_label
  _atom_site_symmetry_multiplicity
  _atom_site_fract_x
  _atom_site_fract_y
  _atom_site_fract_z
  _atom_site_attached_hydrogens
  _atom_site_B_iso_or_equiv
  _atom_site_occupancy
   Mg  Mg1  1  0.146755  0.902465  0.750000  0  .  1
   Mg  Mg2  1  0.603245  0.597535  0.250000  0  .  1
   Ti  Ti3  1  0.101856  0.932353  0.058977  0  .  1
   Ti  Ti4  1  0.101856  0.932353  0.441023  0  .  1
   Ti  Ti5  1  0.104721  0.598377  0.250000  0  .  1
   Ti  Ti6  1  0.149879  0.569024  0.939074  0  .  1
   Ti  Ti7  1  0.149879  0.569024  0.560926  0  .  1
   Ti  Ti8  1  0.351809  0.434574  0.439033  0  .  1
   Ti  Ti9  1  0.600121  0.930976  0.439074  0  .  1
   Ti  Ti10  1  0.351809  0.434574  0.060967  0  .  1
   Ti  Ti11  1  0.600121  0.930976  0.060926  0  .  1
   Ti  Ti12  1  0.645279  0.901623  0.750000  0  .  1
   Ti  Ti13  1  0.395374  0.400242  0.750000  0  .  1
   Ti  Ti14  1  0.354626  0.099758  0.250000  0  .  1
   Ti  Ti15  1  0.648144  0.567647  0.941023  0  .  1
   Ti  Ti16  1  0.398191  0.065426  0.939033  0  .  1
   Ti  Ti17  1  0.648144  0.567647  0.558977  0  .  1
   Ti  Ti18  1  0.398191  0.065426  0.560967  0  .  1
   Ti  Ti19  1  0.849462  0.433367  0.061071  0  .  1
   Ti  Ti20  1  0.849462  0.433367  0.438929  0  .  1
   Ti  Ti21  1  0.898552  0.405334  0.750000  0  .  1
   Ti  Ti22  1  0.851448  0.094666  0.250000  0  .  1
   Ti  Ti23  1  0.900538  0.066633  0.938929  0  .  1
   Ti  Ti24  1  0.900538  0.066633  0.561071  0  .  1
   O  O25  1  0.034052  0.977410  0.614218  0  .  1
   O  O26  1  0.034052  0.977410  0.885782  0  .  1
   O  O27  1  0.013872  0.655604  0.069857  0  .  1
   O  O28  1  0.013872  0.655604  0.430143  0  .  1
   O  O29  1  0.175072  0.884216  0.250000  0  .  1
   O  O30  1  0.073808  0.608427  0.750000  0  .  1
   O  O31  1  0.234669  0.843331  0.933077  0  .  1
   O  O32  1  0.234669  0.843331  0.566923  0  .  1
   O  O33  1  0.213387  0.523980  0.379586  0  .  1
   O  O34  1  0.213387  0.523980  0.120414  0  .  1
   O  O35  1  0.536613  0.976020  0.620414  0  .  1
   O  O36  1  0.536613  0.976020  0.879586  0  .  1
   O  O37  1  0.286599  0.474812  0.879363  0  .  1
   O  O38  1  0.286599  0.474812  0.620637  0  .  1
   O  O39  1  0.264852  0.157197  0.430937  0  .  1
   O  O40  1  0.264852  0.157197  0.069063  0  .  1
   O  O41  1  0.515331  0.656669  0.066923  0  .  1
   O  O42  1  0.515331  0.656669  0.433077  0  .  1
   O  O43  1  0.676192  0.891573  0.250000  0  .  1
   O  O44  1  0.419611  0.377949  0.250000  0  .  1
   O  O45  1  0.574928  0.615784  0.750000  0  .  1
   O  O46  1  0.330389  0.122051  0.750000  0  .  1
   O  O47  1  0.736128  0.844396  0.930143  0  .  1
   O  O48  1  0.736128  0.844396  0.569857  0  .  1
   O  O49  1  0.485148  0.342803  0.930937  0  .  1
   O  O50  1  0.485148  0.342803  0.569063  0  .  1
   O  O51  1  0.715948  0.522590  0.385782  0  .  1
   O  O52  1  0.463401  0.025188  0.379363  0  .  1
   O  O53  1  0.463401  0.025188  0.120637  0  .  1
   O  O54  1  0.715948  0.522590  0.114218  0  .  1
   O  O55  1  0.786901  0.475883  0.619946  0  .  1
   O  O56  1  0.786901  0.475883  0.880054  0  .  1
   O  O57  1  0.765945  0.157294  0.430956  0  .  1
   O  O58  1  0.765945  0.157294  0.069044  0  .  1
   O  O59  1  0.924082  0.382800  0.250000  0  .  1
   O  O60  1  0.825918  0.117200  0.750000  0  .  1
   O  O61  1  0.984055  0.342706  0.930956  0  .  1
   O  O62  1  0.984055  0.342706  0.569044  0  .  1
   O  O63  1  0.963099  0.024117  0.380054  0  .  1
   O  O64  1  0.963099  0.024117  0.119946  0  .  1
 
