#\#CIF1.1
##########################################################################
#               Crystallographic Information Format file 
#               Produced by PyCifRW module
# 
#  This is a CIF file.  CIF has been adopted by the International
#  Union of Crystallography as the standard for data archiving and 
#  transmission.
#
#  For information on this file format, follow the CIF links at
#  http://www.iucr.org
##########################################################################

data_MgV2O4
_symmetry_space_group_name_H-M          'P 1'
_cell_length_a                          6.03426766278
_cell_length_b                          6.03426766619
_cell_length_c                          6.03426767
_cell_angle_alpha                       60.000000034
_cell_angle_beta                        60.0000000152
_cell_angle_gamma                       60.0000000289
_chemical_name_systematic               'Generated by pymatgen'
_symmetry_Int_Tables_number             1
_chemical_formula_structural            MgV2O4
_chemical_formula_sum                   'Mg2 V4 O8'
_cell_volume                            155.366976453
_cell_formula_units_Z                   2
loop_
  _symmetry_equiv_pos_site_id
  _symmetry_equiv_pos_as_xyz
   1  'x, y, z'
 
loop_
  _atom_site_type_symbol
  _atom_site_label
  _atom_site_symmetry_multiplicity
  _atom_site_fract_x
  _atom_site_fract_y
  _atom_site_fract_z
  _atom_site_attached_hydrogens
  _atom_site_B_iso_or_equiv
  _atom_site_occupancy
   O  O1  1  0.740511  0.740510  0.740512  0  .  1
   O  O2  1  0.259489  0.259489  0.721533  0  .  1
   O  O3  1  0.259490  0.721531  0.259490  0  .  1
   O  O4  1  0.721533  0.259489  0.259490  0  .  1
   O  O5  1  0.740510  0.278468  0.740510  0  .  1
   O  O6  1  0.278468  0.740510  0.740510  0  .  1
   O  O7  1  0.259489  0.259489  0.259490  0  .  1
   O  O8  1  0.740511  0.740510  0.278467  0  .  1
   Mg  Mg9  1  0.875000  0.874999  0.875000  0  .  1
   Mg  Mg10  1  0.125000  0.125000  0.125000  0  .  1
   V  V11  1  0.500001  0.500000  0.500000  0  .  1
   V  V12  1  0.500001  0.500000  1.000000  0  .  1
   V  V13  1  0.000000  0.500000  0.500000  0  .  1
   V  V14  1  0.500001  0.000000  0.500000  0  .  1
 
