#\#CIF1.1
##########################################################################
#               Crystallographic Information Format file 
#               Produced by PyCifRW module
# 
#  This is a CIF file.  CIF has been adopted by the International
#  Union of Crystallography as the standard for data archiving and 
#  transmission.
#
#  For information on this file format, follow the CIF links at
#  http://www.iucr.org
##########################################################################

data_Mn2O7
_symmetry_space_group_name_H-M          'P 1'
_cell_length_a                          7.19245926225
_cell_length_b                          9.98266545561
_cell_length_c                          17.96598379
_cell_angle_alpha                       90.0
_cell_angle_beta                        90.0
_cell_angle_gamma                       100.807141776
_chemical_name_systematic               'Generated by pymatgen'
_symmetry_Int_Tables_number             1
_chemical_formula_structural            Mn2O7
_chemical_formula_sum                   'Mn16 O56'
_cell_volume                            1267.07729429
_cell_formula_units_Z                   8
loop_
  _symmetry_equiv_pos_site_id
  _symmetry_equiv_pos_as_xyz
   1  'x, y, z'
 
loop_
  _atom_site_type_symbol
  _atom_site_label
  _atom_site_symmetry_multiplicity
  _atom_site_fract_x
  _atom_site_fract_y
  _atom_site_fract_z
  _atom_site_attached_hydrogens
  _atom_site_B_iso_or_equiv
  _atom_site_occupancy
   O  O1  1  0.828169  0.550341  0.053020  0  .  1
   O  O2  1  0.171831  0.949659  0.553020  0  .  1
   O  O3  1  0.171831  0.449659  0.946980  0  .  1
   O  O4  1  0.828169  0.050341  0.446980  0  .  1
   O  O5  1  0.634659  0.615970  0.940052  0  .  1
   O  O6  1  0.365341  0.884030  0.440052  0  .  1
   O  O7  1  0.365341  0.384030  0.059948  0  .  1
   O  O8  1  0.634659  0.115970  0.559948  0  .  1
   O  O9  1  0.712892  0.782086  0.052914  0  .  1
   O  O10  1  0.287108  0.717914  0.552914  0  .  1
   O  O11  1  0.287108  0.217914  0.947086  0  .  1
   O  O12  1  0.712892  0.282086  0.447086  0  .  1
   O  O13  1  0.271461  0.716878  0.056370  0  .  1
   O  O14  1  0.728539  0.783122  0.556370  0  .  1
   O  O15  1  0.728539  0.283122  0.943630  0  .  1
   O  O16  1  0.271461  0.216878  0.443630  0  .  1
   O  O17  1  0.861613  0.529740  0.791315  0  .  1
   O  O18  1  0.138387  0.970260  0.291315  0  .  1
   O  O19  1  0.138387  0.470260  0.208685  0  .  1
   O  O20  1  0.861613  0.029740  0.708685  0  .  1
   O  O21  1  0.579413  0.565405  0.696149  0  .  1
   O  O22  1  0.420587  0.934595  0.196149  0  .  1
   O  O23  1  0.420587  0.434595  0.303851  0  .  1
   O  O24  1  0.579413  0.065405  0.803851  0  .  1
   O  O25  1  0.499703  0.397836  0.808215  0  .  1
   O  O26  1  0.500297  0.102164  0.308215  0  .  1
   O  O27  1  0.500297  0.602164  0.191785  0  .  1
   O  O28  1  0.499703  0.897836  0.691785  0  .  1
   O  O29  1  0.693064  0.333040  0.695006  0  .  1
   O  O30  1  0.306936  0.166960  0.195006  0  .  1
   O  O31  1  0.306936  0.666960  0.304994  0  .  1
   O  O32  1  0.693064  0.833040  0.804994  0  .  1
   O  O33  1  0.137744  0.501854  0.691743  0  .  1
   O  O34  1  0.862256  0.998146  0.191743  0  .  1
   O  O35  1  0.862256  0.498146  0.308257  0  .  1
   O  O36  1  0.137744  0.001854  0.808257  0  .  1
   O  O37  1  0.225220  0.656771  0.808591  0  .  1
   O  O38  1  0.774780  0.843229  0.308591  0  .  1
   O  O39  1  0.774780  0.343229  0.191409  0  .  1
   O  O40  1  0.225220  0.156771  0.691409  0  .  1
   O  O41  1  0.029052  0.735483  0.700018  0  .  1
   O  O42  1  0.970948  0.764517  0.200018  0  .  1
   O  O43  1  0.970948  0.264517  0.299982  0  .  1
   O  O44  1  0.029052  0.235483  0.799982  0  .  1
   O  O45  1  0.995790  0.248371  0.542543  0  .  1
   O  O46  1  0.004210  0.251629  0.042543  0  .  1
   O  O47  1  0.004210  0.751629  0.457457  0  .  1
   O  O48  1  0.995790  0.748371  0.957457  0  .  1
   O  O49  1  0.164993  0.451455  0.449783  0  .  1
   O  O50  1  0.835007  0.048545  0.949783  0  .  1
   O  O51  1  0.835007  0.548545  0.550217  0  .  1
   O  O52  1  0.164993  0.951455  0.050217  0  .  1
   O  O53  1  0.360194  0.374696  0.559232  0  .  1
   O  O54  1  0.639806  0.125304  0.059232  0  .  1
   O  O55  1  0.639806  0.625304  0.440768  0  .  1
   O  O56  1  0.360194  0.874696  0.940768  0  .  1
   Mn  Mn57  1  0.784920  0.671503  0.002596  0  .  1
   Mn  Mn58  1  0.215080  0.828497  0.502596  0  .  1
   Mn  Mn59  1  0.215080  0.328497  0.997404  0  .  1
   Mn  Mn60  1  0.784920  0.171503  0.497404  0  .  1
   Mn  Mn61  1  0.205979  0.825719  0.002861  0  .  1
   Mn  Mn62  1  0.794021  0.674281  0.502861  0  .  1
   Mn  Mn63  1  0.794021  0.174281  0.997139  0  .  1
   Mn  Mn64  1  0.205979  0.325719  0.497139  0  .  1
   Mn  Mn65  1  0.071202  0.108761  0.753762  0  .  1
   Mn  Mn66  1  0.928798  0.391239  0.253762  0  .  1
   Mn  Mn67  1  0.928798  0.891239  0.246238  0  .  1
   Mn  Mn68  1  0.071202  0.608761  0.746238  0  .  1
   Mn  Mn69  1  0.650481  0.953733  0.754035  0  .  1
   Mn  Mn70  1  0.349519  0.546267  0.254035  0  .  1
   Mn  Mn71  1  0.349519  0.046267  0.245965  0  .  1
   Mn  Mn72  1  0.650481  0.453733  0.745965  0  .  1
 
