#\#CIF1.1
##########################################################################
#               Crystallographic Information Format file 
#               Produced by PyCifRW module
# 
#  This is a CIF file.  CIF has been adopted by the International
#  Union of Crystallography as the standard for data archiving and 
#  transmission.
#
#  For information on this file format, follow the CIF links at
#  http://www.iucr.org
##########################################################################

data_Mn2VO4
_symmetry_space_group_name_H-M          'P 1'
_cell_length_a                          6.14394782456
_cell_length_b                          6.14394782456
_cell_length_c                          6.18119235428
_cell_angle_alpha                       60.1991137069
_cell_angle_beta                        90.0
_cell_angle_gamma                       120.0
_chemical_name_systematic               'Generated by pymatgen'
_symmetry_Int_Tables_number             1
_chemical_formula_structural            Mn2VO4
_chemical_formula_sum                   'Mn4 V2 O8'
_cell_volume                            165.482783506
_cell_formula_units_Z                   2
loop_
  _symmetry_equiv_pos_site_id
  _symmetry_equiv_pos_as_xyz
   1  'x, y, z'
 
loop_
  _atom_site_type_symbol
  _atom_site_label
  _atom_site_symmetry_multiplicity
  _atom_site_fract_x
  _atom_site_fract_y
  _atom_site_fract_z
  _atom_site_attached_hydrogens
  _atom_site_B_iso_or_equiv
  _atom_site_occupancy
   Mn  Mn1  1  0.623291  0.246582  0.626754  0  .  1
   Mn  Mn2  1  0.254908  0.509816  0.235276  0  .  1
   Mn  Mn3  1  0.623291  0.749955  0.626754  0  .  1
   Mn  Mn4  1  0.126664  0.749955  0.626754  0  .  1
   V  V5  1  0.621278  0.242555  0.136167  0  .  1
   V  V6  1  0.994207  0.988414  0.017380  0  .  1
   O  O7  1  0.846270  0.245268  0.355733  0  .  1
   O  O8  1  0.398998  0.245268  0.355733  0  .  1
   O  O9  1  0.866832  0.733665  0.399503  0  .  1
   O  O10  1  0.861478  0.245761  0.892761  0  .  1
   O  O11  1  0.861478  0.722955  0.892761  0  .  1
   O  O12  1  0.384284  0.245761  0.892761  0  .  1
   O  O13  1  0.398998  0.797997  0.355733  0  .  1
   O  O14  1  0.388023  0.776045  0.835932  0  .  1
 
