#\#CIF1.1
##########################################################################
#               Crystallographic Information Format file 
#               Produced by PyCifRW module
# 
#  This is a CIF file.  CIF has been adopted by the International
#  Union of Crystallography as the standard for data archiving and 
#  transmission.
#
#  For information on this file format, follow the CIF links at
#  http://www.iucr.org
##########################################################################

data_Mn3O4
_symmetry_space_group_name_H-M          'P 1'
_cell_length_a                          3.16011646636
_cell_length_b                          12.1302564464
_cell_length_c                          10.5819342174
_cell_angle_alpha                       90.0248159469
_cell_angle_beta                        90.0733286901
_cell_angle_gamma                       89.9836432909
_chemical_name_systematic               'Generated by pymatgen'
_symmetry_Int_Tables_number             1
_chemical_formula_structural            Mn3O4
_chemical_formula_sum                   'Mn12 O16'
_cell_volume                            405.637142476
_cell_formula_units_Z                   4
loop_
  _symmetry_equiv_pos_site_id
  _symmetry_equiv_pos_as_xyz
   1  'x, y, z'
 
loop_
  _atom_site_type_symbol
  _atom_site_label
  _atom_site_symmetry_multiplicity
  _atom_site_fract_x
  _atom_site_fract_y
  _atom_site_fract_z
  _atom_site_attached_hydrogens
  _atom_site_B_iso_or_equiv
  _atom_site_occupancy
   Mn  Mn1  1  0.246279  0.953583  0.124389  0  .  1
   Mn  Mn2  1  0.251731  0.250159  0.977291  0  .  1
   Mn  Mn3  1  0.251995  0.038012  0.375749  0  .  1
   Mn  Mn4  1  0.761369  0.965244  0.625291  0  .  1
   Mn  Mn5  1  0.239489  0.548011  0.119916  0  .  1
   Mn  Mn6  1  0.747738  0.451322  0.880212  0  .  1
   Mn  Mn7  1  0.756980  0.044697  0.881466  0  .  1
   Mn  Mn8  1  0.752491  0.536862  0.625850  0  .  1
   Mn  Mn9  1  0.740949  0.748630  0.032776  0  .  1
   Mn  Mn10  1  0.244160  0.470004  0.373873  0  .  1
   Mn  Mn11  1  0.748676  0.248767  0.438050  0  .  1
   Mn  Mn12  1  0.258224  0.751791  0.546021  0  .  1
   O  O13  1  0.745933  0.903252  0.009294  0  .  1
   O  O14  1  0.745970  0.402745  0.475706  0  .  1
   O  O15  1  0.261148  0.006209  0.753094  0  .  1
   O  O16  1  0.250203  0.491603  0.751489  0  .  1
   O  O17  1  0.753148  0.097871  0.485245  0  .  1
   O  O18  1  0.758096  0.751372  0.639009  0  .  1
   O  O19  1  0.240633  0.745511  0.128902  0  .  1
   O  O20  1  0.253521  0.094582  0.997372  0  .  1
   O  O21  1  0.253265  0.596591  0.515688  0  .  1
   O  O22  1  0.260311  0.906058  0.514851  0  .  1
   O  O23  1  0.740816  0.595378  0.002630  0  .  1
   O  O24  1  0.248973  0.239636  0.344952  0  .  1
   O  O25  1  0.247130  0.404848  -0.000435  0  .  1
   O  O26  1  0.751913  0.252486  0.881454  0  .  1
   O  O27  1  0.740111  0.512568  0.248762  0  .  1
   O  O28  1  0.748749  0.992208  0.251101  0  .  1
 
