#\#CIF1.1
##########################################################################
#               Crystallographic Information Format file 
#               Produced by PyCifRW module
# 
#  This is a CIF file.  CIF has been adopted by the International
#  Union of Crystallography as the standard for data archiving and 
#  transmission.
#
#  For information on this file format, follow the CIF links at
#  http://www.iucr.org
##########################################################################

data_Mn3V2O10
_symmetry_space_group_name_H-M          'P 1'
_cell_length_a                          5.04660708633
_cell_length_b                          5.46579377294
_cell_length_c                          7.80287974468
_cell_angle_alpha                       111.326479317
_cell_angle_beta                        97.3000236022
_cell_angle_gamma                       103.273839846
_chemical_name_systematic               'Generated by pymatgen'
_symmetry_Int_Tables_number             1
_chemical_formula_structural            Mn3V2O10
_chemical_formula_sum                   'Mn3 V2 O10'
_cell_volume                            189.801630521
_cell_formula_units_Z                   1
loop_
  _symmetry_equiv_pos_site_id
  _symmetry_equiv_pos_as_xyz
   1  'x, y, z'
 
loop_
  _atom_site_type_symbol
  _atom_site_label
  _atom_site_symmetry_multiplicity
  _atom_site_fract_x
  _atom_site_fract_y
  _atom_site_fract_z
  _atom_site_attached_hydrogens
  _atom_site_B_iso_or_equiv
  _atom_site_occupancy
   Mn  Mn1  1  0.000000  0.500000  0.000000  0  .  1
   Mn  Mn2  1  0.694793  0.884395  0.899954  0  .  1
   Mn  Mn3  1  0.305207  0.115605  0.100046  0  .  1
   V  V4  1  0.099160  0.720176  0.675229  0  .  1
   V  V5  1  0.900840  0.279824  0.324771  0  .  1
   O  O6  1  0.056482  0.059441  0.853683  0  .  1
   O  O7  1  0.336796  0.747377  0.955594  0  .  1
   O  O8  1  0.081242  0.329411  0.543915  0  .  1
   O  O9  1  0.196135  0.433779  0.216422  0  .  1
   O  O10  1  0.451312  0.851600  0.679726  0  .  1
   O  O11  1  0.548688  0.148400  0.320274  0  .  1
   O  O12  1  0.803865  0.566221  0.783578  0  .  1
   O  O13  1  0.918758  0.670589  0.456085  0  .  1
   O  O14  1  0.663204  0.252623  0.044406  0  .  1
   O  O15  1  0.943518  0.940559  0.146317  0  .  1
 
