#\#CIF1.1
##########################################################################
#               Crystallographic Information Format file 
#               Produced by PyCifRW module
# 
#  This is a CIF file.  CIF has been adopted by the International
#  Union of Crystallography as the standard for data archiving and 
#  transmission.
#
#  For information on this file format, follow the CIF links at
#  http://www.iucr.org
##########################################################################

data_Mn3VO8
_symmetry_space_group_name_H-M          'P 1'
_cell_length_a                          5.79006973063
_cell_length_b                          5.79215372778
_cell_length_c                          8.95734210737
_cell_angle_alpha                       89.7776224133
_cell_angle_beta                        90.1112309411
_cell_angle_gamma                       120.011911588
_chemical_name_systematic               'Generated by pymatgen'
_symmetry_Int_Tables_number             1
_chemical_formula_structural            Mn3VO8
_chemical_formula_sum                   'Mn6 V2 O16'
_cell_volume                            260.122701372
_cell_formula_units_Z                   2
loop_
  _symmetry_equiv_pos_site_id
  _symmetry_equiv_pos_as_xyz
   1  'x, y, z'
 
loop_
  _atom_site_type_symbol
  _atom_site_label
  _atom_site_symmetry_multiplicity
  _atom_site_fract_x
  _atom_site_fract_y
  _atom_site_fract_z
  _atom_site_attached_hydrogens
  _atom_site_B_iso_or_equiv
  _atom_site_occupancy
   Mn  Mn1  1  0.167056  0.831519  0.210744  0  .  1
   Mn  Mn2  1  0.168117  0.335395  0.212903  0  .  1
   Mn  Mn3  1  0.664118  0.830966  0.211573  0  .  1
   Mn  Mn4  1  0.335882  0.166848  0.711573  0  .  1
   Mn  Mn5  1  0.832944  0.664463  0.710744  0  .  1
   Mn  Mn6  1  0.831883  0.167278  0.712903  0  .  1
   V  V7  1  0.333402  0.667326  0.492820  0  .  1
   V  V8  1  0.666598  0.333924  0.992820  0  .  1
   O  O9  1  0.168174  0.832447  0.599955  0  .  1
   O  O10  1  0.041702  0.522127  0.337477  0  .  1
   O  O11  1  0.333040  0.666751  0.102263  0  .  1
   O  O12  1  0.999887  0.998510  0.316233  0  .  1
   O  O13  1  0.000113  0.998623  0.816233  0  .  1
   O  O14  1  0.167938  0.336657  0.599602  0  .  1
   O  O15  1  0.478148  0.957299  0.337691  0  .  1
   O  O16  1  0.480221  0.521323  0.336884  0  .  1
   O  O17  1  0.335466  0.168415  0.099713  0  .  1
   O  O18  1  0.664534  0.832949  0.599713  0  .  1
   O  O19  1  0.521852  0.479150  0.837691  0  .  1
   O  O20  1  0.519779  0.041102  0.836884  0  .  1
   O  O21  1  0.666960  0.333711  0.602263  0  .  1
   O  O22  1  0.831826  0.664272  0.099955  0  .  1
   O  O23  1  0.958298  0.480424  0.837477  0  .  1
   O  O24  1  0.832062  0.168719  0.099602  0  .  1
 
