#\#CIF1.1
##########################################################################
#               Crystallographic Information Format file 
#               Produced by PyCifRW module
# 
#  This is a CIF file.  CIF has been adopted by the International
#  Union of Crystallography as the standard for data archiving and 
#  transmission.
#
#  For information on this file format, follow the CIF links at
#  http://www.iucr.org
##########################################################################

data_MnS
_symmetry_space_group_name_H-M          'P 1'
_cell_length_a                          4.38269834396
_cell_length_b                          4.38268554018
_cell_length_c                          4.38272290233
_cell_angle_alpha                       59.9996405877
_cell_angle_beta                        59.9999133719
_cell_angle_gamma                       60.000644988
_chemical_name_systematic               'Generated by pymatgen'
_symmetry_Int_Tables_number             1
_chemical_formula_structural            MnS
_chemical_formula_sum                   'Mn2 S2'
_cell_volume                            59.5266659881
_cell_formula_units_Z                   2
loop_
  _symmetry_equiv_pos_site_id
  _symmetry_equiv_pos_as_xyz
   1  'x, y, z'
 
loop_
  _atom_site_type_symbol
  _atom_site_label
  _atom_site_symmetry_multiplicity
  _atom_site_fract_x
  _atom_site_fract_y
  _atom_site_fract_z
  _atom_site_attached_hydrogens
  _atom_site_B_iso_or_equiv
  _atom_site_occupancy
   Mn  Mn1  1  -0.000003  0.000025  -0.000037  0  .  1
   Mn  Mn2  1  0.500016  0.499983  0.500010  0  .  1
   S  S3  1  0.749998  0.750009  0.749995  0  .  1
   S  S4  1  0.249988  0.249983  0.250032  0  .  1
 
