#\#CIF1.1
##########################################################################
#               Crystallographic Information Format file 
#               Produced by PyCifRW module
# 
#  This is a CIF file.  CIF has been adopted by the International
#  Union of Crystallography as the standard for data archiving and 
#  transmission.
#
#  For information on this file format, follow the CIF links at
#  http://www.iucr.org
##########################################################################

data_MnV2O4
_symmetry_space_group_name_H-M          'P 1'
_cell_length_a                          10.709647385
_cell_length_b                          9.26250967601
_cell_length_c                          3.00654415002
_cell_angle_alpha                       89.9999784662
_cell_angle_beta                        89.999549552
_cell_angle_gamma                       90.1118469089
_chemical_name_systematic               'Generated by pymatgen'
_symmetry_Int_Tables_number             1
_chemical_formula_structural            MnV2O4
_chemical_formula_sum                   'Mn4 V8 O16'
_cell_volume                            298.24323731
_cell_formula_units_Z                   4
loop_
  _symmetry_equiv_pos_site_id
  _symmetry_equiv_pos_as_xyz
   1  'x, y, z'
 
loop_
  _atom_site_type_symbol
  _atom_site_label
  _atom_site_symmetry_multiplicity
  _atom_site_fract_x
  _atom_site_fract_y
  _atom_site_fract_z
  _atom_site_attached_hydrogens
  _atom_site_B_iso_or_equiv
  _atom_site_occupancy
   Mn  Mn1  1  0.149070  0.748500  0.249998  0  .  1
   Mn  Mn2  1  0.349985  0.248324  0.250001  0  .  1
   Mn  Mn3  1  0.649531  0.751997  0.750005  0  .  1
   Mn  Mn4  1  0.850293  0.251372  0.749997  0  .  1
   V  V5  1  0.117371  0.066506  0.250001  0  .  1
   V  V6  1  0.103641  0.416041  0.750008  0  .  1
   V  V7  1  0.382548  0.566611  0.250001  0  .  1
   V  V8  1  0.396253  0.916139  0.750000  0  .  1
   V  V9  1  0.603615  0.083669  0.250002  0  .  1
   V  V10  1  0.617318  0.433074  0.749994  0  .  1
   V  V11  1  0.895348  0.584228  0.250000  0  .  1
   V  V12  1  0.882777  0.933319  0.749999  0  .  1
   O  O13  1  0.972300  0.377288  0.250015  0  .  1
   O  O14  1  0.028983  0.623214  0.750018  0  .  1
   O  O15  1  0.071885  0.913917  0.750001  0  .  1
   O  O16  1  0.175057  0.208061  0.749997  0  .  1
   O  O17  1  0.215998  0.474449  0.249981  0  .  1
   O  O18  1  0.284063  0.974718  0.249995  0  .  1
   O  O19  1  0.325703  0.708323  0.749996  0  .  1
   O  O20  1  0.427900  0.413500  0.750000  0  .  1
   O  O21  1  0.472109  0.123293  0.750001  0  .  1
   O  O22  1  0.528100  0.876555  0.250005  0  .  1
   O  O23  1  0.572400  0.586300  0.249996  0  .  1
   O  O24  1  0.674624  0.291587  0.250000  0  .  1
   O  O25  1  0.716090  0.025229  0.750002  0  .  1
   O  O26  1  0.784434  0.525761  0.749989  0  .  1
   O  O27  1  0.824801  0.791328  0.249999  0  .  1
   O  O28  1  0.927802  0.086700  0.250002  0  .  1
 
