#\#CIF1.1
##########################################################################
#               Crystallographic Information Format file 
#               Produced by PyCifRW module
# 
#  This is a CIF file.  CIF has been adopted by the International
#  Union of Crystallography as the standard for data archiving and 
#  transmission.
#
#  For information on this file format, follow the CIF links at
#  http://www.iucr.org
##########################################################################

data_MnV3O8
_symmetry_space_group_name_H-M          'P 1'
_cell_length_a                          5.69099985496
_cell_length_b                          7.57949599634
_cell_length_c                          5.70249632016
_cell_angle_alpha                       90.2722183552
_cell_angle_beta                        89.4050725847
_cell_angle_gamma                       89.682636385
_chemical_name_systematic               'Generated by pymatgen'
_symmetry_Int_Tables_number             1
_chemical_formula_structural            MnV3O8
_chemical_formula_sum                   'Mn1 V3 O8'
_cell_volume                            245.956791865
_cell_formula_units_Z                   1
loop_
  _symmetry_equiv_pos_site_id
  _symmetry_equiv_pos_as_xyz
   1  'x, y, z'
 
loop_
  _atom_site_type_symbol
  _atom_site_label
  _atom_site_symmetry_multiplicity
  _atom_site_fract_x
  _atom_site_fract_y
  _atom_site_fract_z
  _atom_site_attached_hydrogens
  _atom_site_B_iso_or_equiv
  _atom_site_occupancy
   Mn  Mn1  1  0.930816  0.876670  0.511240  0  .  1
   V  V2  1  0.063996  0.129134  0.013823  0  .  1
   V  V3  1  0.434118  0.619519  0.494593  0  .  1
   V  V4  1  0.561801  0.375957  0.994462  0  .  1
   O  O5  1  0.038589  0.078215  0.301455  0  .  1
   O  O6  1  0.145827  0.664092  0.453978  0  .  1
   O  O7  1  0.360517  0.197432  0.941834  0  .  1
   O  O8  1  0.482711  0.547028  0.790817  0  .  1
   O  O9  1  0.530114  0.447575  0.296056  0  .  1
   O  O10  1  0.594091  0.805386  0.449987  0  .  1
   O  O11  1  0.864777  0.307955  0.951640  0  .  1
   O  O12  1  0.992643  0.951037  0.848515  0  .  1
 
