#\#CIF1.1
##########################################################################
#               Crystallographic Information Format file 
#               Produced by PyCifRW module
# 
#  This is a CIF file.  CIF has been adopted by the International
#  Union of Crystallography as the standard for data archiving and 
#  transmission.
#
#  For information on this file format, follow the CIF links at
#  http://www.iucr.org
##########################################################################

data_MnVO4
_symmetry_space_group_name_H-M          'P 1'
_cell_length_a                          5.82314962825
_cell_length_b                          5.93619706682
_cell_length_c                          5.93619706682
_cell_angle_alpha                       60.4247552163
_cell_angle_beta                        60.6279799796
_cell_angle_gamma                       60.6279799796
_chemical_name_systematic               'Generated by pymatgen'
_symmetry_Int_Tables_number             1
_chemical_formula_structural            MnVO4
_chemical_formula_sum                   'Mn2 V2 O8'
_cell_volume                            146.932571359
_cell_formula_units_Z                   2
loop_
  _symmetry_equiv_pos_site_id
  _symmetry_equiv_pos_as_xyz
   1  'x, y, z'
 
loop_
  _atom_site_type_symbol
  _atom_site_label
  _atom_site_symmetry_multiplicity
  _atom_site_fract_x
  _atom_site_fract_y
  _atom_site_fract_z
  _atom_site_attached_hydrogens
  _atom_site_B_iso_or_equiv
  _atom_site_occupancy
   Mn  Mn1  1  0.500000  0.000000  0.500000  0  .  1
   Mn  Mn2  1  0.500000  0.500000  0.000000  0  .  1
   V  V3  1  0.117968  0.132032  0.132032  0  .  1
   V  V4  1  0.882032  0.867968  0.867968  0  .  1
   O  O5  1  0.728877  0.245306  0.245306  0  .  1
   O  O6  1  0.280512  0.245306  0.245306  0  .  1
   O  O7  1  0.764372  0.209421  0.761834  0  .  1
   O  O8  1  0.764372  0.761834  0.209421  0  .  1
   O  O9  1  0.235628  0.790579  0.238166  0  .  1
   O  O10  1  0.235628  0.238166  0.790579  0  .  1
   O  O11  1  0.271123  0.754694  0.754694  0  .  1
   O  O12  1  0.719488  0.754694  0.754694  0  .  1
 
