#\#CIF1.1
##########################################################################
#               Crystallographic Information Format file 
#               Produced by PyCifRW module
# 
#  This is a CIF file.  CIF has been adopted by the International
#  Union of Crystallography as the standard for data archiving and 
#  transmission.
#
#  For information on this file format, follow the CIF links at
#  http://www.iucr.org
##########################################################################

data_Na(FeO2)2
_symmetry_space_group_name_H-M          'P 1'
_cell_length_a                          6.12190180028
_cell_length_b                          6.05522647541
_cell_length_c                          6.12913064064
_cell_angle_alpha                       60.492468391
_cell_angle_beta                        60.5284668471
_cell_angle_gamma                       60.4325527484
_chemical_name_systematic               'Generated by pymatgen'
_symmetry_Int_Tables_number             1
_chemical_formula_structural            Na(FeO2)2
_chemical_formula_sum                   'Na2 Fe4 O8'
_cell_volume                            162.416437701
_cell_formula_units_Z                   2
loop_
  _symmetry_equiv_pos_site_id
  _symmetry_equiv_pos_as_xyz
   1  'x, y, z'
 
loop_
  _atom_site_type_symbol
  _atom_site_label
  _atom_site_symmetry_multiplicity
  _atom_site_fract_x
  _atom_site_fract_y
  _atom_site_fract_z
  _atom_site_attached_hydrogens
  _atom_site_B_iso_or_equiv
  _atom_site_occupancy
   Na  Na1  1  0.125958  0.124599  0.125067  0  .  1
   Na  Na2  1  0.874015  0.875489  0.874908  0  .  1
   Fe  Fe3  1  0.499945  0.499941  0.000074  0  .  1
   Fe  Fe4  1  0.499846  0.000167  0.499979  0  .  1
   Fe  Fe5  1  0.000060  0.499920  0.499982  0  .  1
   Fe  Fe6  1  0.499954  0.499966  0.500040  0  .  1
   O  O7  1  0.275323  0.257883  0.274954  0  .  1
   O  O8  1  0.690576  0.262864  0.282607  0  .  1
   O  O9  1  0.277180  0.692186  0.276766  0  .  1
   O  O10  1  0.281791  0.264088  0.690614  0  .  1
   O  O11  1  0.718332  0.735802  0.309324  0  .  1
   O  O12  1  0.722754  0.307943  0.723226  0  .  1
   O  O13  1  0.724767  0.742052  0.725073  0  .  1
   O  O14  1  0.309500  0.737100  0.717387  0  .  1
 
