#\#CIF1.1
##########################################################################
#               Crystallographic Information Format file 
#               Produced by PyCifRW module
# 
#  This is a CIF file.  CIF has been adopted by the International
#  Union of Crystallography as the standard for data archiving and 
#  transmission.
#
#  For information on this file format, follow the CIF links at
#  http://www.iucr.org
##########################################################################

data_Na(Fe2O3)4
_symmetry_space_group_name_H-M          'P 1'
_cell_length_a                          6.08191416019
_cell_length_b                          6.08191416019
_cell_length_c                          14.8003542121
_cell_angle_alpha                       90.4945768059
_cell_angle_beta                        89.5054231941
_cell_angle_gamma                       120.176354321
_chemical_name_systematic               'Generated by pymatgen'
_symmetry_Int_Tables_number             1
_chemical_formula_structural            Na(Fe2O3)4
_chemical_formula_sum                   'Na2 Fe16 O24'
_cell_volume                            473.246339118
_cell_formula_units_Z                   2
loop_
  _symmetry_equiv_pos_site_id
  _symmetry_equiv_pos_as_xyz
   1  'x, y, z'
 
loop_
  _atom_site_type_symbol
  _atom_site_label
  _atom_site_symmetry_multiplicity
  _atom_site_fract_x
  _atom_site_fract_y
  _atom_site_fract_z
  _atom_site_attached_hydrogens
  _atom_site_B_iso_or_equiv
  _atom_site_occupancy
   Na  Na1  1  0.166667  0.833333  0.208333  0  .  1
   Na  Na2  1  0.666667  0.333333  0.708333  0  .  1
   Fe  Fe3  1  0.337201  0.662799  0.043750  0  .  1
   Fe  Fe4  1  0.996579  0.003421  0.001184  0  .  1
   Fe  Fe5  1  0.166667  0.333333  0.208333  0  .  1
   Fe  Fe6  1  0.666667  0.833333  0.208333  0  .  1
   Fe  Fe7  1  0.336754  0.663246  0.415482  0  .  1
   Fe  Fe8  1  0.675294  0.324706  0.088077  0  .  1
   Fe  Fe9  1  0.996132  0.003868  0.372917  0  .  1
   Fe  Fe10  1  0.334253  0.665747  0.660381  0  .  1
   Fe  Fe11  1  0.658039  0.341961  0.328590  0  .  1
   Fe  Fe12  1  0.999084  0.502812  0.877522  0  .  1
   Fe  Fe13  1  0.836145  0.665751  0.539145  0  .  1
   Fe  Fe14  1  0.334249  0.163855  0.539145  0  .  1
   Fe  Fe15  1  0.999080  0.000920  0.756285  0  .  1
   Fe  Fe16  1  0.499073  0.500927  0.876204  0  .  1
   Fe  Fe17  1  0.834260  0.165740  0.540462  0  .  1
   Fe  Fe18  1  0.497188  0.000916  0.877522  0  .  1
   O  O19  1  0.517043  0.981267  0.121661  0  .  1
   O  O20  1  0.018733  0.482957  0.121661  0  .  1
   O  O21  1  0.160203  0.839797  0.461930  0  .  1
   O  O22  1  0.499487  0.500513  0.132006  0  .  1
   O  O23  1  0.342746  0.657254  0.288480  0  .  1
   O  O24  1  0.990588  0.009412  0.128187  0  .  1
   O  O25  1  0.816290  0.685400  0.295005  0  .  1
   O  O26  1  0.314600  0.183710  0.295005  0  .  1
   O  O27  1  0.156767  0.312088  0.462631  0  .  1
   O  O28  1  0.687912  0.843233  0.462631  0  .  1
   O  O29  1  0.000676  0.999324  0.618821  0  .  1
   O  O30  1  0.332657  0.667343  0.797846  0  .  1
   O  O31  1  0.668258  0.331742  0.465846  0  .  1
   O  O32  1  0.173130  0.826870  0.954737  0  .  1
   O  O33  1  0.503012  0.496988  0.611817  0  .  1
   O  O34  1  0.833847  0.166153  0.284660  0  .  1
   O  O35  1  0.502005  0.002894  0.612233  0  .  1
   O  O36  1  0.645422  0.823434  0.954036  0  .  1
   O  O37  1  0.997106  0.497995  0.612233  0  .  1
   O  O38  1  0.176566  0.354578  0.954036  0  .  1
   O  O39  1  0.831329  0.663772  0.804434  0  .  1
   O  O40  1  0.336228  0.168671  0.804434  0  .  1
   O  O41  1  0.830321  0.169679  0.804849  0  .  1
   O  O42  1  0.665076  0.334924  0.950821  0  .  1
 
