#\#CIF1.1
##########################################################################
#               Crystallographic Information Format file 
#               Produced by PyCifRW module
# 
#  This is a CIF file.  CIF has been adopted by the International
#  Union of Crystallography as the standard for data archiving and 
#  transmission.
#
#  For information on this file format, follow the CIF links at
#  http://www.iucr.org
##########################################################################

data_Na(NiO2)2
_symmetry_space_group_name_H-M          'P 1'
_cell_length_a                          4.84896940763
_cell_length_b                          5.74514102087
_cell_length_c                          11.1713303078
_cell_angle_alpha                       89.7153211567
_cell_angle_beta                        89.9842813679
_cell_angle_gamma                       90.0126796973
_chemical_name_systematic               'Generated by pymatgen'
_symmetry_Int_Tables_number             1
_chemical_formula_structural            Na(NiO2)2
_chemical_formula_sum                   'Na4 Ni8 O16'
_cell_volume                            311.207204706
_cell_formula_units_Z                   4
loop_
  _symmetry_equiv_pos_site_id
  _symmetry_equiv_pos_as_xyz
   1  'x, y, z'
 
loop_
  _atom_site_type_symbol
  _atom_site_label
  _atom_site_symmetry_multiplicity
  _atom_site_fract_x
  _atom_site_fract_y
  _atom_site_fract_z
  _atom_site_attached_hydrogens
  _atom_site_B_iso_or_equiv
  _atom_site_occupancy
   Na  Na1  1  0.018015  0.750009  0.249960  0  .  1
   Na  Na2  1  0.356934  0.750011  0.750100  0  .  1
   Na  Na3  1  0.643046  0.249990  0.249899  0  .  1
   Na  Na4  1  0.982015  0.249993  0.750049  0  .  1
   Ni  Ni5  1  0.001943  0.247914  0.003570  0  .  1
   Ni  Ni6  1  0.998044  0.752091  0.996424  0  .  1
   Ni  Ni7  1  0.001909  0.252101  0.496428  0  .  1
   Ni  Ni8  1  0.998106  0.747893  0.503579  0  .  1
   Ni  Ni9  1  0.499995  0.499984  0.999999  0  .  1
   Ni  Ni10  1  0.499990  0.000012  0.999999  0  .  1
   Ni  Ni11  1  0.500006  0.000024  0.500000  0  .  1
   Ni  Ni12  1  0.500006  0.499978  0.499999  0  .  1
   O  O13  1  0.175836  0.001413  0.591874  0  .  1
   O  O14  1  0.177928  0.001818  0.907484  0  .  1
   O  O15  1  0.177864  0.498079  0.592524  0  .  1
   O  O16  1  0.175859  0.498562  0.908123  0  .  1
   O  O17  1  0.334384  0.241497  0.087639  0  .  1
   O  O18  1  0.334431  0.258585  0.412325  0  .  1
   O  O19  1  0.321754  0.761712  0.085694  0  .  1
   O  O20  1  0.322042  0.738377  0.414328  0  .  1
   O  O21  1  0.677991  0.261620  0.585688  0  .  1
   O  O22  1  0.678244  0.238289  0.914295  0  .  1
   O  O23  1  0.665551  0.741412  0.587665  0  .  1
   O  O24  1  0.665586  0.758504  0.912365  0  .  1
   O  O25  1  0.824182  0.998751  0.408124  0  .  1
   O  O26  1  0.822147  0.501766  0.407470  0  .  1
   O  O27  1  0.822057  0.998278  0.092520  0  .  1
   O  O28  1  0.824134  0.501337  0.091878  0  .  1
 
