#\#CIF1.1
##########################################################################
#               Crystallographic Information Format file 
#               Produced by PyCifRW module
# 
#  This is a CIF file.  CIF has been adopted by the International
#  Union of Crystallography as the standard for data archiving and 
#  transmission.
#
#  For information on this file format, follow the CIF links at
#  http://www.iucr.org
##########################################################################

data_Na10Zn4O9
_symmetry_space_group_name_H-M          'P 1'
_cell_length_a                          8.75605442609
_cell_length_b                          8.7560543282
_cell_length_c                          8.7426716279
_cell_angle_alpha                       77.5113590609
_cell_angle_beta                        77.5113588962
_cell_angle_gamma                       76.9175136347
_chemical_name_systematic               'Generated by pymatgen'
_symmetry_Int_Tables_number             1
_chemical_formula_structural            Na10Zn4O9
_chemical_formula_sum                   'Na20 Zn8 O18'
_cell_volume                            627.50108342
_cell_formula_units_Z                   2
loop_
  _symmetry_equiv_pos_site_id
  _symmetry_equiv_pos_as_xyz
   1  'x, y, z'
 
loop_
  _atom_site_type_symbol
  _atom_site_label
  _atom_site_symmetry_multiplicity
  _atom_site_fract_x
  _atom_site_fract_y
  _atom_site_fract_z
  _atom_site_attached_hydrogens
  _atom_site_B_iso_or_equiv
  _atom_site_occupancy
   Na  Na1  1  1.000127  -0.000127  1.000000  0  .  1
   Na  Na2  1  0.051698  0.356195  0.368186  0  .  1
   Na  Na3  1  0.085204  0.671882  0.291672  0  .  1
   Na  Na4  1  0.198564  0.249219  0.638993  0  .  1
   Na  Na5  1  0.300324  0.699676  0.000000  0  .  1
   Na  Na6  1  0.390468  0.059298  0.374574  0  .  1
   Na  Na7  1  0.382223  0.369275  0.061599  0  .  1
   Na  Na8  1  0.227763  0.772237  0.500000  0  .  1
   Na  Na9  1  0.231560  0.514931  0.774526  0  .  1
   Na  Na10  1  0.328118  0.914796  0.708328  0  .  1
   Na  Na11  1  0.485069  0.768440  0.225474  0  .  1
   Na  Na12  1  0.492351  0.228508  0.772353  0  .  1
   Na  Na13  1  0.652801  0.220300  0.210907  0  .  1
   Na  Na14  1  0.771492  0.507649  0.227647  0  .  1
   Na  Na15  1  0.762844  0.237156  0.500000  0  .  1
   Na  Na16  1  0.630725  0.617777  0.938401  0  .  1
   Na  Na17  1  0.643805  0.948302  0.631814  0  .  1
   Na  Na18  1  0.779700  0.347199  0.789093  0  .  1
   Na  Na19  1  0.750781  0.801436  0.361007  0  .  1
   Na  Na20  1  0.940702  0.609532  0.625426  0  .  1
   O  O21  1  0.117485  0.508330  0.106175  0  .  1
   O  O22  1  0.126963  0.087835  0.505336  0  .  1
   O  O23  1  0.199845  0.509449  0.508099  0  .  1
   O  O24  1  0.109778  0.799668  0.807193  0  .  1
   O  O25  1  0.200332  0.890222  0.192807  0  .  1
   O  O26  1  0.209283  0.209067  0.897669  0  .  1
   O  O27  1  0.499346  0.101813  0.109068  0  .  1
   O  O28  1  0.501273  0.206010  0.503813  0  .  1
   O  O29  1  0.513709  0.502527  0.194778  0  .  1
   O  O30  1  0.497473  0.486291  0.805222  0  .  1
   O  O31  1  0.490551  0.800155  0.491901  0  .  1
   O  O32  1  0.491670  0.882515  0.893825  0  .  1
   O  O33  1  0.790933  0.790717  0.102331  0  .  1
   O  O34  1  0.778729  0.089756  0.777699  0  .  1
   O  O35  1  0.910244  0.221271  0.222301  0  .  1
   O  O36  1  0.793990  0.498727  0.496187  0  .  1
   O  O37  1  0.912165  0.873037  0.494664  0  .  1
   O  O38  1  0.898187  0.500654  0.890932  0  .  1
   Zn  Zn39  1  0.036161  0.026773  0.331370  0  .  1
   Zn  Zn40  1  0.036169  0.336110  0.030366  0  .  1
   Zn  Zn41  1  0.328521  0.031969  0.031434  0  .  1
   Zn  Zn42  1  0.410419  0.422890  0.404523  0  .  1
   Zn  Zn43  1  0.577110  0.589581  0.595477  0  .  1
   Zn  Zn44  1  0.663890  0.963831  0.969634  0  .  1
   Zn  Zn45  1  0.968031  0.671479  0.968566  0  .  1
   Zn  Zn46  1  0.973227  0.963839  0.668630  0  .  1
 
