#\#CIF1.1
##########################################################################
#               Crystallographic Information Format file 
#               Produced by PyCifRW module
# 
#  This is a CIF file.  CIF has been adopted by the International
#  Union of Crystallography as the standard for data archiving and 
#  transmission.
#
#  For information on this file format, follow the CIF links at
#  http://www.iucr.org
##########################################################################

data_Na10Mn4O9
_symmetry_space_group_name_H-M          'P 1'
_cell_length_a                          8.91723347173
_cell_length_b                          8.88452781563
_cell_length_c                          8.88452726223
_cell_angle_alpha                       78.6376197484
_cell_angle_beta                        77.5667191944
_cell_angle_gamma                       77.5667199894
_chemical_name_systematic               'Generated by pymatgen'
_symmetry_Int_Tables_number             1
_chemical_formula_structural            Na10Mn4O9
_chemical_formula_sum                   'Na20 Mn8 O18'
_cell_volume                            662.8222309
_cell_formula_units_Z                   2
loop_
  _symmetry_equiv_pos_site_id
  _symmetry_equiv_pos_as_xyz
   1  'x, y, z'
 
loop_
  _atom_site_type_symbol
  _atom_site_label
  _atom_site_symmetry_multiplicity
  _atom_site_fract_x
  _atom_site_fract_y
  _atom_site_fract_z
  _atom_site_attached_hydrogens
  _atom_site_B_iso_or_equiv
  _atom_site_occupancy
   Mn  Mn1  1  0.092862  0.087171  0.087171  0  .  1
   Mn  Mn2  1  0.173542  0.468557  0.468557  0  .  1
   Mn  Mn3  1  0.466680  0.168178  0.475176  0  .  1
   Mn  Mn4  1  0.466680  0.475176  0.168178  0  .  1
   Mn  Mn5  1  0.530009  0.828503  0.533713  0  .  1
   Mn  Mn6  1  0.530009  0.533713  0.828503  0  .  1
   Mn  Mn7  1  0.837793  0.528928  0.528928  0  .  1
   Mn  Mn8  1  0.928959  0.902159  0.902159  0  .  1
   Na  Na9  1  0.023041  0.267838  0.738497  0  .  1
   Na  Na10  1  0.111179  0.123205  0.437767  0  .  1
   Na  Na11  1  0.111179  0.437767  0.123205  0  .  1
   Na  Na12  1  0.269693  0.987007  0.730178  0  .  1
   Na  Na13  1  0.269693  0.730178  0.987007  0  .  1
   Na  Na14  1  0.187024  0.797208  0.537642  0  .  1
   Na  Na15  1  0.187024  0.537642  0.797208  0  .  1
   Na  Na16  1  0.449827  0.140784  0.140784  0  .  1
   Na  Na17  1  0.387280  0.219209  0.839997  0  .  1
   Na  Na18  1  0.387280  0.839997  0.219209  0  .  1
   Na  Na19  1  0.493505  0.503094  0.503094  0  .  1
   Na  Na20  1  0.736500  0.259879  0.993509  0  .  1
   Na  Na21  1  0.747313  0.695314  0.145297  0  .  1
   Na  Na22  1  0.747313  0.145297  0.695314  0  .  1
   Na  Na23  1  0.565694  0.884613  0.884613  0  .  1
   Na  Na24  1  0.847244  0.281696  0.281696  0  .  1
   Na  Na25  1  0.736500  0.993509  0.259879  0  .  1
   Na  Na26  1  0.863724  0.551222  0.876357  0  .  1
   Na  Na27  1  0.863724  0.876357  0.551222  0  .  1
   Na  Na28  1  0.023041  0.738497  0.267838  0  .  1
   O  O29  1  0.011873  0.691617  0.012499  0  .  1
   O  O30  1  0.011873  0.012499  0.691617  0  .  1
   O  O31  1  0.006388  0.613889  0.613889  0  .  1
   O  O32  1  0.299164  0.615985  0.307363  0  .  1
   O  O33  1  0.299164  0.307363  0.615985  0  .  1
   O  O34  1  0.376663  0.403199  0.995119  0  .  1
   O  O35  1  0.376663  0.995119  0.403199  0  .  1
   O  O36  1  0.382457  0.697126  0.697126  0  .  1
   O  O37  1  0.709700  0.001524  0.001524  0  .  1
   O  O38  1  0.307356  0.989362  0.989362  0  .  1
   O  O39  1  0.593534  0.274250  0.274250  0  .  1
   O  O40  1  0.595916  0.001413  0.624541  0  .  1
   O  O41  1  0.595916  0.624541  0.001413  0  .  1
   O  O42  1  0.719805  0.397849  0.717643  0  .  1
   O  O43  1  0.719805  0.717643  0.397849  0  .  1
   O  O44  1  0.007273  0.388552  0.388552  0  .  1
   O  O45  1  0.983869  0.300553  0.000416  0  .  1
   O  O46  1  0.983869  0.000416  0.300553  0  .  1
 
