#\#CIF1.1
##########################################################################
#               Crystallographic Information Format file 
#               Produced by PyCifRW module
# 
#  This is a CIF file.  CIF has been adopted by the International
#  Union of Crystallography as the standard for data archiving and 
#  transmission.
#
#  For information on this file format, follow the CIF links at
#  http://www.iucr.org
##########################################################################

data_Na11Ti20O40
_symmetry_space_group_name_H-M          'P 1'
_cell_length_a                          5.8776903362
_cell_length_b                          5.87768395254
_cell_length_c                          117.238821551
_cell_angle_alpha                       29.509809746
_cell_angle_beta                        29.5097446097
_cell_angle_gamma                       29.7073807142
_chemical_name_systematic               'Generated by pymatgen'
_symmetry_Int_Tables_number             1
_chemical_formula_structural            Na11Ti20O40
_chemical_formula_sum                   'Na11 Ti20 O40'
_cell_volume                            873.429757462
_cell_formula_units_Z                   1
loop_
  _symmetry_equiv_pos_site_id
  _symmetry_equiv_pos_as_xyz
   1  'x, y, z'
 
loop_
  _atom_site_type_symbol
  _atom_site_label
  _atom_site_symmetry_multiplicity
  _atom_site_fract_x
  _atom_site_fract_y
  _atom_site_fract_z
  _atom_site_attached_hydrogens
  _atom_site_B_iso_or_equiv
  _atom_site_occupancy
   Na  Na1  1  0.997442  0.997442  0.050287  0  .  1
   Na  Na2  1  0.002685  0.002684  0.449705  0  .  1
   Na  Na3  1  0.036566  0.036568  0.546269  0  .  1
   Na  Na4  1  0.999792  0.999792  0.700007  0  .  1
   Na  Na5  1  0.005154  0.005153  0.599514  0  .  1
   Na  Na6  1  0.000120  0.000118  0.649986  0  .  1
   Na  Na7  1  0.999714  0.999715  0.850031  0  .  1
   Na  Na8  1  0.999507  0.999508  0.750050  0  .  1
   Na  Na9  1  0.999969  0.999968  0.800009  0  .  1
   Na  Na10  1  0.994262  0.994262  0.900562  0  .  1
   Na  Na11  1  0.963043  0.963042  0.953767  0  .  1
   Ti  Ti12  1  0.503055  0.503047  0.024025  0  .  1
   Ti  Ti13  1  0.499582  0.499580  0.075662  0  .  1
   Ti  Ti14  1  0.489780  0.489783  0.125944  0  .  1
   Ti  Ti15  1  0.491916  0.491918  0.175761  0  .  1
   Ti  Ti16  1  0.497554  0.497555  0.225257  0  .  1
   Ti  Ti17  1  0.502618  0.502619  0.274726  0  .  1
   Ti  Ti18  1  0.508448  0.508445  0.324201  0  .  1
   Ti  Ti19  1  0.512083  0.512084  0.373873  0  .  1
   Ti  Ti20  1  0.503008  0.503006  0.424090  0  .  1
   Ti  Ti21  1  0.496259  0.496262  0.476034  0  .  1
   Ti  Ti22  1  0.497133  0.497136  0.524827  0  .  1
   Ti  Ti23  1  0.497456  0.497457  0.575395  0  .  1
   Ti  Ti24  1  0.493636  0.493634  0.625627  0  .  1
   Ti  Ti25  1  0.500939  0.500937  0.674923  0  .  1
   Ti  Ti26  1  0.502014  0.502012  0.724800  0  .  1
   Ti  Ti27  1  0.496861  0.496862  0.775323  0  .  1
   Ti  Ti28  1  0.500376  0.500375  0.824953  0  .  1
   Ti  Ti29  1  0.506264  0.506268  0.874373  0  .  1
   Ti  Ti30  1  0.501093  0.501096  0.924751  0  .  1
   Ti  Ti31  1  0.501385  0.501386  0.975338  0  .  1
   O  O32  1  0.215010  0.215010  0.012567  0  .  1
   O  O33  1  0.238389  0.238392  0.060699  0  .  1
   O  O34  1  0.762122  0.762121  0.039194  0  .  1
   O  O35  1  0.228489  0.228493  0.110818  0  .  1
   O  O36  1  0.791311  0.791311  0.087128  0  .  1
   O  O37  1  0.228444  0.228445  0.160733  0  .  1
   O  O38  1  0.783155  0.783151  0.137992  0  .  1
   O  O39  1  0.225370  0.225369  0.211080  0  .  1
   O  O40  1  0.779740  0.779737  0.188398  0  .  1
   O  O41  1  0.222595  0.222596  0.261359  0  .  1
   O  O42  1  0.777089  0.777085  0.238673  0  .  1
   O  O43  1  0.220310  0.220315  0.311602  0  .  1
   O  O44  1  0.774706  0.774704  0.288905  0  .  1
   O  O45  1  0.217806  0.217812  0.361914  0  .  1
   O  O46  1  0.772442  0.772440  0.339166  0  .  1
   O  O47  1  0.209629  0.209632  0.412775  0  .  1
   O  O48  1  0.772738  0.772737  0.389047  0  .  1
   O  O49  1  0.238389  0.238388  0.460761  0  .  1
   O  O50  1  0.761798  0.761799  0.439281  0  .  1
   O  O51  1  0.218586  0.218585  0.512370  0  .  1
   O  O52  1  0.785499  0.785501  0.487421  0  .  1
   O  O53  1  0.233781  0.233783  0.561779  0  .  1
   O  O54  1  0.761585  0.761587  0.539024  0  .  1
   O  O55  1  0.232692  0.232686  0.612041  0  .  1
   O  O56  1  0.766184  0.766184  0.588212  0  .  1
   O  O57  1  0.233243  0.233242  0.662082  0  .  1
   O  O58  1  0.766002  0.766005  0.637994  0  .  1
   O  O59  1  0.233137  0.233138  0.712059  0  .  1
   O  O60  1  0.764483  0.764483  0.688181  0  .  1
   O  O61  1  0.234379  0.234379  0.761857  0  .  1
   O  O62  1  0.764796  0.764796  0.738237  0  .  1
   O  O63  1  0.235335  0.235335  0.811844  0  .  1
   O  O64  1  0.765474  0.765471  0.788072  0  .  1
   O  O65  1  0.233943  0.233941  0.862038  0  .  1
   O  O66  1  0.765221  0.765221  0.838045  0  .  1
   O  O67  1  0.233459  0.233454  0.911810  0  .  1
   O  O68  1  0.766553  0.766555  0.888068  0  .  1
   O  O69  1  0.238610  0.238614  0.960908  0  .  1
   O  O70  1  0.766469  0.766480  0.938221  0  .  1
   O  O71  1  0.781320  0.781313  0.987573  0  .  1
 
