#\#CIF1.1
##########################################################################
#               Crystallographic Information Format file 
#               Produced by PyCifRW module
# 
#  This is a CIF file.  CIF has been adopted by the International
#  Union of Crystallography as the standard for data archiving and 
#  transmission.
#
#  For information on this file format, follow the CIF links at
#  http://www.iucr.org
##########################################################################

data_Na11Mn24O48
_symmetry_space_group_name_H-M          'P 1'
_cell_length_a                          6.18999237529
_cell_length_b                          12.3239469466
_cell_length_c                          13.5426058124
_cell_angle_alpha                       77.5975802785
_cell_angle_beta                        102.121573949
_cell_angle_gamma                       85.9305779445
_chemical_name_systematic               'Generated by pymatgen'
_symmetry_Int_Tables_number             1
_chemical_formula_structural            Na11Mn24O48
_chemical_formula_sum                   'Na11 Mn24 O48'
_cell_volume                            979.179724107
_cell_formula_units_Z                   1
loop_
  _symmetry_equiv_pos_site_id
  _symmetry_equiv_pos_as_xyz
   1  'x, y, z'
 
loop_
  _atom_site_type_symbol
  _atom_site_label
  _atom_site_symmetry_multiplicity
  _atom_site_fract_x
  _atom_site_fract_y
  _atom_site_fract_z
  _atom_site_attached_hydrogens
  _atom_site_B_iso_or_equiv
  _atom_site_occupancy
   Na  Na1  1  0.691162  0.017997  0.413553  0  .  1
   Na  Na2  1  0.031743  0.352475  0.088898  0  .  1
   Na  Na3  1  0.624503  0.313032  0.248734  0  .  1
   Na  Na4  1  0.046561  0.855371  0.078975  0  .  1
   Na  Na5  1  0.722022  0.525901  0.414055  0  .  1
   Na  Na6  1  0.371934  0.186335  0.746528  0  .  1
   Na  Na7  1  0.307425  0.480886  0.582904  0  .  1
   Na  Na8  1  0.959983  0.147061  0.914245  0  .  1
   Na  Na9  1  0.968129  0.642330  0.924704  0  .  1
   Na  Na10  1  0.276368  0.976427  0.583041  0  .  1
   Na  Na11  1  0.376507  0.686257  0.754566  0  .  1
   Mn  Mn12  1  0.508655  0.000067  0.000978  0  .  1
   Mn  Mn13  1  0.494235  0.247411  0.998129  0  .  1
   Mn  Mn14  1  0.827187  0.078041  0.166356  0  .  1
   Mn  Mn15  1  0.493193  0.499351  0.002432  0  .  1
   Mn  Mn16  1  0.327522  0.078254  0.165688  0  .  1
   Mn  Mn17  1  0.507616  0.752897  0.006365  0  .  1
   Mn  Mn18  1  0.840991  0.591704  0.167030  0  .  1
   Mn  Mn19  1  0.340537  0.591315  0.167096  0  .  1
   Mn  Mn20  1  0.156907  0.161325  0.333415  0  .  1
   Mn  Mn21  1  0.177408  0.421566  0.332319  0  .  1
   Mn  Mn22  1  0.498886  0.249840  0.498965  0  .  1
   Mn  Mn23  1  0.823005  0.079348  0.664463  0  .  1
   Mn  Mn24  1  0.171868  0.673969  0.328849  0  .  1
   Mn  Mn25  1  0.999792  0.250137  0.499030  0  .  1
   Mn  Mn26  1  0.839407  0.338294  0.663933  0  .  1
   Mn  Mn27  1  0.844356  0.586296  0.671505  0  .  1
   Mn  Mn28  1  0.155594  0.911950  0.328117  0  .  1
   Mn  Mn29  1  0.500371  0.751127  0.497108  0  .  1
   Mn  Mn30  1  0.996278  0.750459  0.497110  0  .  1
   Mn  Mn31  1  0.827110  0.827762  0.670769  0  .  1
   Mn  Mn32  1  0.669982  0.415530  0.835398  0  .  1
   Mn  Mn33  1  0.168434  0.415986  0.834352  0  .  1
   Mn  Mn34  1  0.664976  0.912187  0.835072  0  .  1
   Mn  Mn35  1  0.163239  0.915285  0.836040  0  .  1
   O  O36  1  0.716735  0.113859  0.011249  0  .  1
   O  O37  1  0.302719  0.123667  0.009553  0  .  1
   O  O38  1  0.584105  0.196139  0.148179  0  .  1
   O  O39  1  0.926789  0.037038  0.315250  0  .  1
   O  O40  1  0.725354  0.632794  0.016702  0  .  1
   O  O41  1  0.303384  0.639998  0.012410  0  .  1
   O  O42  1  0.566155  0.481870  0.150014  0  .  1
   O  O43  1  0.958292  0.282149  0.349184  0  .  1
   O  O44  1  0.067120  0.177084  0.173803  0  .  1
   O  O45  1  0.353337  0.035530  0.319811  0  .  1
   O  O46  1  0.965464  0.553081  0.319194  0  .  1
   O  O47  1  0.567711  0.697134  0.156767  0  .  1
   O  O48  1  0.111984  0.486827  0.171363  0  .  1
   O  O49  1  0.393333  0.293938  0.349646  0  .  1
   O  O50  1  0.768201  0.144990  0.506508  0  .  1
   O  O51  1  0.109002  0.694772  0.180236  0  .  1
   O  O52  1  0.961123  0.796192  0.336952  0  .  1
   O  O53  1  0.259960  0.149074  0.491415  0  .  1
   O  O54  1  0.585211  0.980185  0.153733  0  .  1
   O  O55  1  0.387532  0.554952  0.315981  0  .  1
   O  O56  1  0.738747  0.351887  0.508380  0  .  1
   O  O57  1  0.231814  0.354181  0.491969  0  .  1
   O  O58  1  0.605813  0.204228  0.648594  0  .  1
   O  O59  1  0.893979  0.015294  0.826734  0  .  1
   O  O60  1  0.751450  0.636071  0.520400  0  .  1
   O  O61  1  0.069153  0.966606  0.178796  0  .  1
   O  O62  1  0.374546  0.785358  0.336676  0  .  1
   O  O63  1  0.226992  0.646395  0.479524  0  .  1
   O  O64  1  0.769303  0.854789  0.520302  0  .  1
   O  O65  1  0.446182  0.023005  0.851496  0  .  1
   O  O66  1  0.039533  0.217691  0.648918  0  .  1
   O  O67  1  0.643784  0.466149  0.680852  0  .  1
   O  O68  1  0.928132  0.318827  0.820438  0  .  1
   O  O69  1  0.624607  0.715012  0.661128  0  .  1
   O  O70  1  0.929813  0.531183  0.822569  0  .  1
   O  O71  1  0.250326  0.863288  0.479257  0  .  1
   O  O72  1  0.073430  0.465539  0.683838  0  .  1
   O  O73  1  0.409161  0.300041  0.847661  0  .  1
   O  O74  1  0.035881  0.705333  0.661024  0  .  1
   O  O75  1  0.611053  0.944222  0.685586  0  .  1
   O  O76  1  0.412242  0.514035  0.849735  0  .  1
   O  O77  1  0.890837  0.804909  0.821287  0  .  1
   O  O78  1  0.694845  0.363753  0.988662  0  .  1
   O  O79  1  0.265825  0.367253  0.986063  0  .  1
   O  O80  1  0.432062  0.810332  0.849942  0  .  1
   O  O81  1  0.036137  0.944810  0.681241  0  .  1
   O  O82  1  0.707015  0.872607  0.990122  0  .  1
   O  O83  1  0.294944  0.889260  0.990138  0  .  1
 
