#\#CIF1.1
##########################################################################
#               Crystallographic Information Format file 
#               Produced by PyCifRW module
# 
#  This is a CIF file.  CIF has been adopted by the International
#  Union of Crystallography as the standard for data archiving and 
#  transmission.
#
#  For information on this file format, follow the CIF links at
#  http://www.iucr.org
##########################################################################

data_Na14Co2O9
_symmetry_space_group_name_H-M          'P 1'
_cell_length_a                          6.6596569064
_cell_length_b                          6.65955009223
_cell_length_c                          9.38198225958
_cell_angle_alpha                       89.99453087
_cell_angle_beta                        89.998433447
_cell_angle_gamma                       119.995768008
_chemical_name_systematic               'Generated by pymatgen'
_symmetry_Int_Tables_number             1
_chemical_formula_structural            Na14Co2O9
_chemical_formula_sum                   'Na14 Co2 O9'
_cell_volume                            360.363253932
_cell_formula_units_Z                   1
loop_
  _symmetry_equiv_pos_site_id
  _symmetry_equiv_pos_as_xyz
   1  'x, y, z'
 
loop_
  _atom_site_type_symbol
  _atom_site_label
  _atom_site_symmetry_multiplicity
  _atom_site_fract_x
  _atom_site_fract_y
  _atom_site_fract_z
  _atom_site_attached_hydrogens
  _atom_site_B_iso_or_equiv
  _atom_site_occupancy
   Na  Na1  1  0.036429  0.675664  0.907735  0  .  1
   Na  Na2  1  0.312320  0.934881  0.593175  0  .  1
   Na  Na3  1  0.065104  0.377448  0.593182  0  .  1
   Na  Na4  1  0.999988  0.999994  0.250953  0  .  1
   Na  Na5  1  -0.000000  0.999996  0.749047  0  .  1
   Na  Na6  1  0.324339  0.360788  0.907734  0  .  1
   Na  Na7  1  0.639222  0.963581  0.907729  0  .  1
   Na  Na8  1  0.377433  0.312374  0.406785  0  .  1
   Na  Na9  1  0.622557  0.687654  0.593189  0  .  1
   Na  Na10  1  0.360757  0.036385  0.092290  0  .  1
   Na  Na11  1  0.675589  0.639225  0.092296  0  .  1
   Na  Na12  1  0.934929  0.622560  0.406789  0  .  1
   Na  Na13  1  0.687630  0.065073  0.406785  0  .  1
   Na  Na14  1  0.963603  0.324385  0.092292  0  .  1
   Co  Co15  1  0.333328  0.666670  0.261878  0  .  1
   Co  Co16  1  0.666649  0.333322  0.738127  0  .  1
   O  O17  1  0.304452  0.941400  0.336227  0  .  1
   O  O18  1  0.058607  0.363058  0.336226  0  .  1
   O  O19  1  0.333315  0.666669  0.044617  0  .  1
   O  O20  1  0.999991  0.000003  -0.000001  0  .  1
   O  O21  1  0.363044  0.304452  0.663768  0  .  1
   O  O22  1  0.636927  0.695541  0.336234  0  .  1
   O  O23  1  0.666663  0.333346  0.955400  0  .  1
   O  O24  1  0.941400  0.636945  0.663778  0  .  1
   O  O25  1  0.695525  0.058586  0.663764  0  .  1
 
