#\#CIF1.1
##########################################################################
#               Crystallographic Information Format file 
#               Produced by PyCifRW module
# 
#  This is a CIF file.  CIF has been adopted by the International
#  Union of Crystallography as the standard for data archiving and 
#  transmission.
#
#  For information on this file format, follow the CIF links at
#  http://www.iucr.org
##########################################################################

data_Na14Cu2O9
_symmetry_space_group_name_H-M          'P 1'
_cell_length_a                          6.65921416007
_cell_length_b                          6.65637698015
_cell_length_c                          9.28971646968
_cell_angle_alpha                       90.0151615352
_cell_angle_beta                        90.0092046158
_cell_angle_gamma                       119.986881632
_chemical_name_systematic               'Generated by pymatgen'
_symmetry_Int_Tables_number             1
_chemical_formula_structural            Na14Cu2O9
_chemical_formula_sum                   'Na14 Cu2 O9'
_cell_volume                            356.657480049
_cell_formula_units_Z                   1
loop_
  _symmetry_equiv_pos_site_id
  _symmetry_equiv_pos_as_xyz
   1  'x, y, z'
 
loop_
  _atom_site_type_symbol
  _atom_site_label
  _atom_site_symmetry_multiplicity
  _atom_site_fract_x
  _atom_site_fract_y
  _atom_site_fract_z
  _atom_site_attached_hydrogens
  _atom_site_B_iso_or_equiv
  _atom_site_occupancy
   Na  Na1  1  0.034448  0.675853  0.906895  0  .  1
   Na  Na2  1  0.317492  0.941011  0.594639  0  .  1
   Na  Na3  1  0.058994  0.376397  0.594679  0  .  1
   Na  Na4  1  0.000012  0.000008  0.253766  0  .  1
   Na  Na5  1  0.000078  0.000031  0.746310  0  .  1
   Na  Na6  1  0.324010  0.358651  0.906946  0  .  1
   Na  Na7  1  0.641250  0.965405  0.906862  0  .  1
   Na  Na8  1  0.376336  0.317547  0.405159  0  .  1
   Na  Na9  1  0.623618  0.682553  0.594675  0  .  1
   Na  Na10  1  0.358557  0.034350  0.093266  0  .  1
   Na  Na11  1  0.675677  0.641382  0.093225  0  .  1
   Na  Na12  1  0.941251  0.623557  0.405142  0  .  1
   Na  Na13  1  0.682505  0.058836  0.405156  0  .  1
   Na  Na14  1  0.965615  0.324280  0.093278  0  .  1
   Cu  Cu15  1  0.333564  0.666854  0.259294  0  .  1
   Cu  Cu16  1  0.666614  0.333297  0.740580  0  .  1
   O  O17  1  0.305029  0.947747  0.335864  0  .  1
   O  O18  1  0.052170  0.357244  0.336053  0  .  1
   O  O19  1  0.333436  0.666840  0.044186  0  .  1
   O  O20  1  0.999876  0.999983  0.000013  0  .  1
   O  O21  1  0.357714  0.305154  0.664194  0  .  1
   O  O22  1  0.642449  0.694654  0.335794  0  .  1
   O  O23  1  0.666579  0.333384  0.955654  0  .  1
   O  O24  1  0.947603  0.642282  0.664238  0  .  1
   O  O25  1  0.694923  0.052699  0.664131  0  .  1
 
