#\#CIF1.1
##########################################################################
#               Crystallographic Information Format file 
#               Produced by PyCifRW module
# 
#  This is a CIF file.  CIF has been adopted by the International
#  Union of Crystallography as the standard for data archiving and 
#  transmission.
#
#  For information on this file format, follow the CIF links at
#  http://www.iucr.org
##########################################################################

data_Na14Mn2O9
_symmetry_space_group_name_H-M          'P 1'
_cell_length_a                          6.73875713
_cell_length_b                          6.73875717153
_cell_length_c                          9.43825985
_cell_angle_alpha                       90.0
_cell_angle_beta                        90.0
_cell_angle_gamma                       119.999999838
_chemical_name_systematic               'Generated by pymatgen'
_symmetry_Int_Tables_number             1
_chemical_formula_structural            Na14Mn2O9
_chemical_formula_sum                   'Na14 Mn2 O9'
_cell_volume                            371.17795419
_cell_formula_units_Z                   1
loop_
  _symmetry_equiv_pos_site_id
  _symmetry_equiv_pos_as_xyz
   1  'x, y, z'
 
loop_
  _atom_site_type_symbol
  _atom_site_label
  _atom_site_symmetry_multiplicity
  _atom_site_fract_x
  _atom_site_fract_y
  _atom_site_fract_z
  _atom_site_attached_hydrogens
  _atom_site_B_iso_or_equiv
  _atom_site_occupancy
   Na  Na1  1  0.000000  0.000000  0.251783  0  .  1
   Na  Na2  1  0.000000  0.000000  0.748217  0  .  1
   Na  Na3  1  0.067470  0.377010  0.591478  0  .  1
   Na  Na4  1  0.622990  0.690460  0.591478  0  .  1
   Na  Na5  1  0.309540  0.932530  0.591478  0  .  1
   Na  Na6  1  0.932530  0.622990  0.408522  0  .  1
   Na  Na7  1  0.377010  0.309540  0.408522  0  .  1
   Na  Na8  1  0.690460  0.067470  0.408522  0  .  1
   Na  Na9  1  0.679773  0.638709  0.091423  0  .  1
   Na  Na10  1  0.361291  0.041063  0.091423  0  .  1
   Na  Na11  1  0.958937  0.320227  0.091423  0  .  1
   Na  Na12  1  0.320227  0.361291  0.908577  0  .  1
   Na  Na13  1  0.638709  0.958937  0.908577  0  .  1
   Na  Na14  1  0.041063  0.679773  0.908577  0  .  1
   Mn  Mn15  1  0.333333  0.666667  0.262293  0  .  1
   Mn  Mn16  1  0.666667  0.333333  0.737707  0  .  1
   O  O17  1  0.333333  0.666667  0.038686  0  .  1
   O  O18  1  0.666667  0.333333  0.961314  0  .  1
   O  O19  1  0.000000  0.000000  0.000000  0  .  1
   O  O20  1  0.947757  0.642825  0.662660  0  .  1
   O  O21  1  0.357175  0.304932  0.662660  0  .  1
   O  O22  1  0.695068  0.052243  0.662660  0  .  1
   O  O23  1  0.052243  0.357175  0.337340  0  .  1
   O  O24  1  0.642825  0.695068  0.337340  0  .  1
   O  O25  1  0.304932  0.947757  0.337340  0  .  1
 
