#\#CIF1.1
##########################################################################
#               Crystallographic Information Format file 
#               Produced by PyCifRW module
# 
#  This is a CIF file.  CIF has been adopted by the International
#  Union of Crystallography as the standard for data archiving and 
#  transmission.
#
#  For information on this file format, follow the CIF links at
#  http://www.iucr.org
##########################################################################

data_Na2(NiO2)7
_symmetry_space_group_name_H-M          'P 1'
_cell_length_a                          4.84406113936
_cell_length_b                          6.50572674746
_cell_length_c                          9.01526958763
_cell_angle_alpha                       99.8047154551
_cell_angle_beta                        94.7347896509
_cell_angle_gamma                       103.709025964
_chemical_name_systematic               'Generated by pymatgen'
_symmetry_Int_Tables_number             1
_chemical_formula_structural            Na2(NiO2)7
_chemical_formula_sum                   'Na2 Ni7 O14'
_cell_volume                            269.732560901
_cell_formula_units_Z                   1
loop_
  _symmetry_equiv_pos_site_id
  _symmetry_equiv_pos_as_xyz
   1  'x, y, z'
 
loop_
  _atom_site_type_symbol
  _atom_site_label
  _atom_site_symmetry_multiplicity
  _atom_site_fract_x
  _atom_site_fract_y
  _atom_site_fract_z
  _atom_site_attached_hydrogens
  _atom_site_B_iso_or_equiv
  _atom_site_occupancy
   Na  Na1  1  0.421961  0.851237  0.857945  0  .  1
   Na  Na2  1  0.149501  0.291630  0.284923  0  .  1
   Ni  Ni3  1  0.853150  0.214910  0.712838  0  .  1
   Ni  Ni4  1  0.718296  0.927951  0.430015  0  .  1
   Ni  Ni5  1  0.422081  0.353101  0.856178  0  .  1
   Ni  Ni6  1  0.575412  0.645368  0.144320  0  .  1
   Ni  Ni7  1  0.285706  0.071433  0.571431  0  .  1
   Ni  Ni8  1  0.149311  0.789769  0.286681  0  .  1
   Ni  Ni9  1  0.995994  0.497459  0.998536  0  .  1
   O  O10  1  0.985628  0.191486  0.519346  0  .  1
   O  O11  1  0.706330  0.214912  0.895855  0  .  1
   O  O12  1  0.686857  0.614983  0.942971  0  .  1
   O  O13  1  0.884580  0.527863  0.199890  0  .  1
   O  O14  1  0.865087  0.927950  0.247001  0  .  1
   O  O15  1  0.552592  0.334949  0.663113  0  .  1
   O  O16  1  0.585826  0.951380  0.623513  0  .  1
   O  O17  1  0.154381  0.090622  0.762717  0  .  1
   O  O18  1  0.123145  0.475758  0.802117  0  .  1
   O  O19  1  0.448282  0.667094  0.340734  0  .  1
   O  O20  1  0.417058  0.052242  0.380141  0  .  1
   O  O21  1  0.018833  0.807913  0.479742  0  .  1
   O  O22  1  0.284774  0.363042  0.043296  0  .  1
   O  O23  1  0.286643  0.779805  0.099559  0  .  1
 
