#\#CIF1.1
##########################################################################
#               Crystallographic Information Format file 
#               Produced by PyCifRW module
# 
#  This is a CIF file.  CIF has been adopted by the International
#  Union of Crystallography as the standard for data archiving and 
#  transmission.
#
#  For information on this file format, follow the CIF links at
#  http://www.iucr.org
##########################################################################

data_Na2Cr2O7
_symmetry_space_group_name_H-M          'P 1'
_cell_length_a                          7.87663800513
_cell_length_b                          7.11592066258
_cell_length_c                          7.04896267262
_cell_angle_alpha                       94.9243475047
_cell_angle_beta                        86.1305156665
_cell_angle_gamma                       121.632093047
_chemical_name_systematic               'Generated by pymatgen'
_symmetry_Int_Tables_number             1
_chemical_formula_structural            Na2Cr2O7
_chemical_formula_sum                   'Na4 Cr4 O14'
_cell_volume                            335.034484314
_cell_formula_units_Z                   2
loop_
  _symmetry_equiv_pos_site_id
  _symmetry_equiv_pos_as_xyz
   1  'x, y, z'
 
loop_
  _atom_site_type_symbol
  _atom_site_label
  _atom_site_symmetry_multiplicity
  _atom_site_fract_x
  _atom_site_fract_y
  _atom_site_fract_z
  _atom_site_attached_hydrogens
  _atom_site_B_iso_or_equiv
  _atom_site_occupancy
   Na  Na1  1  0.661152  0.929332  0.616129  0  .  1
   Na  Na2  1  0.338848  0.070668  0.383871  0  .  1
   Na  Na3  1  0.235298  0.368018  0.844748  0  .  1
   Na  Na4  1  0.764702  0.631982  0.155252  0  .  1
   Cr  Cr5  1  0.184467  0.840235  0.881738  0  .  1
   Cr  Cr6  1  0.815533  0.159765  0.118262  0  .  1
   Cr  Cr7  1  0.759200  0.522082  0.660730  0  .  1
   Cr  Cr8  1  0.240800  0.477918  0.339270  0  .  1
   O  O9  1  0.356670  0.776881  0.865780  0  .  1
   O  O10  1  0.643330  0.223119  0.134220  0  .  1
   O  O11  1  0.235516  0.031628  0.736926  0  .  1
   O  O12  1  0.764484  0.968372  0.263074  0  .  1
   O  O13  1  0.153797  0.919471  0.099590  0  .  1
   O  O14  1  0.846203  0.080529  0.900410  0  .  1
   O  O15  1  0.665079  0.266544  0.576758  0  .  1
   O  O16  1  0.334921  0.733456  0.423242  0  .  1
   O  O17  1  0.586663  0.551646  0.777335  0  .  1
   O  O18  1  0.413337  0.448354  0.222665  0  .  1
   O  O19  1  0.847804  0.689133  0.486942  0  .  1
   O  O20  1  0.152196  0.310867  0.513058  0  .  1
   O  O21  1  0.951260  0.594244  0.822791  0  .  1
   O  O22  1  0.048740  0.405756  0.177209  0  .  1
 
