#\#CIF1.1
##########################################################################
#               Crystallographic Information Format file 
#               Produced by PyCifRW module
# 
#  This is a CIF file.  CIF has been adopted by the International
#  Union of Crystallography as the standard for data archiving and 
#  transmission.
#
#  For information on this file format, follow the CIF links at
#  http://www.iucr.org
##########################################################################

data_Na2Cu4S3
_symmetry_space_group_name_H-M          'P 1'
_cell_length_a                          3.82092643
_cell_length_b                          8.25062266096
_cell_length_c                          10.2745252354
_cell_angle_alpha                       107.573163318
_cell_angle_beta                        90.0
_cell_angle_gamma                       103.388569008
_chemical_name_systematic               'Generated by pymatgen'
_symmetry_Int_Tables_number             1
_chemical_formula_structural            Na2Cu4S3
_chemical_formula_sum                   'Na4 Cu8 S6'
_cell_volume                            299.541762762
_cell_formula_units_Z                   2
loop_
  _symmetry_equiv_pos_site_id
  _symmetry_equiv_pos_as_xyz
   1  'x, y, z'
 
loop_
  _atom_site_type_symbol
  _atom_site_label
  _atom_site_symmetry_multiplicity
  _atom_site_fract_x
  _atom_site_fract_y
  _atom_site_fract_z
  _atom_site_attached_hydrogens
  _atom_site_B_iso_or_equiv
  _atom_site_occupancy
   Na  Na1  1  0.831924  0.663848  0.158334  0  .  1
   Na  Na2  1  0.168076  0.336152  0.841666  0  .  1
   Na  Na3  1  0.687281  0.374562  0.343055  0  .  1
   Na  Na4  1  0.312719  0.625438  0.656945  0  .  1
   S  S5  1  0.650125  0.300250  0.045758  0  .  1
   S  S6  1  0.028027  0.056054  0.271801  0  .  1
   S  S7  1  0.971973  0.943946  0.728199  0  .  1
   S  S8  1  0.664752  0.329504  0.613947  0  .  1
   S  S9  1  0.335248  0.670496  0.386053  0  .  1
   S  S10  1  0.349875  0.699750  0.954242  0  .  1
   Cu  Cu11  1  0.516912  0.033823  0.882572  0  .  1
   Cu  Cu12  1  0.483088  0.966177  0.117428  0  .  1
   Cu  Cu13  1  0.090927  0.181853  0.507835  0  .  1
   Cu  Cu14  1  0.087564  0.175128  0.087887  0  .  1
   Cu  Cu15  1  0.912436  0.824872  0.912113  0  .  1
   Cu  Cu16  1  0.474450  0.948900  0.366673  0  .  1
   Cu  Cu17  1  0.525550  0.051100  0.633327  0  .  1
   Cu  Cu18  1  0.909073  0.818147  0.492165  0  .  1
 
