#\#CIF1.1
##########################################################################
#               Crystallographic Information Format file 
#               Produced by PyCifRW module
# 
#  This is a CIF file.  CIF has been adopted by the International
#  Union of Crystallography as the standard for data archiving and 
#  transmission.
#
#  For information on this file format, follow the CIF links at
#  http://www.iucr.org
##########################################################################

data_Na2CuO2
_symmetry_space_group_name_H-M          'P 1'
_cell_length_a                          5.67228635402
_cell_length_b                          5.67228635402
_cell_length_c                          5.67228635402
_cell_angle_alpha                       132.964508345
_cell_angle_beta                        149.309569813
_cell_angle_gamma                       57.2153682942
_chemical_name_systematic               'Generated by pymatgen'
_symmetry_Int_Tables_number             1
_chemical_formula_structural            Na2CuO2
_chemical_formula_sum                   'Na2 Cu1 O2'
_cell_volume                            67.6773834982
_cell_formula_units_Z                   1
loop_
  _symmetry_equiv_pos_site_id
  _symmetry_equiv_pos_as_xyz
   1  'x, y, z'
 
loop_
  _atom_site_type_symbol
  _atom_site_label
  _atom_site_symmetry_multiplicity
  _atom_site_fract_x
  _atom_site_fract_y
  _atom_site_fract_z
  _atom_site_attached_hydrogens
  _atom_site_B_iso_or_equiv
  _atom_site_occupancy
   Na  Na1  1  0.688301  0.188301  0.500000  0  .  1
   Na  Na2  1  0.311699  0.811699  0.500000  0  .  1
   Cu  Cu3  1  0.000000  0.500000  0.500000  0  .  1
   O  O4  1  0.367499  0.367499  0.000000  0  .  1
   O  O5  1  0.632501  0.632501  0.000000  0  .  1
 
