#\#CIF1.1
##########################################################################
#               Crystallographic Information Format file 
#               Produced by PyCifRW module
# 
#  This is a CIF file.  CIF has been adopted by the International
#  Union of Crystallography as the standard for data archiving and 
#  transmission.
#
#  For information on this file format, follow the CIF links at
#  http://www.iucr.org
##########################################################################

data_Na2CoS2
_symmetry_space_group_name_H-M          'P 1'
_cell_length_a                          5.57932365349
_cell_length_b                          6.28844408295
_cell_length_c                          7.11240046588
_cell_angle_alpha                       116.236417702
_cell_angle_beta                        113.093021257
_cell_angle_gamma                       89.9999999599
_chemical_name_systematic               'Generated by pymatgen'
_symmetry_Int_Tables_number             1
_chemical_formula_structural            Na2CoS2
_chemical_formula_sum                   'Na4 Co2 S4'
_cell_volume                            201.29861516
_cell_formula_units_Z                   2
loop_
  _symmetry_equiv_pos_site_id
  _symmetry_equiv_pos_as_xyz
   1  'x, y, z'
 
loop_
  _atom_site_type_symbol
  _atom_site_label
  _atom_site_symmetry_multiplicity
  _atom_site_fract_x
  _atom_site_fract_y
  _atom_site_fract_z
  _atom_site_attached_hydrogens
  _atom_site_B_iso_or_equiv
  _atom_site_occupancy
   Na  Na1  1  0.144497  0.482163  0.288994  0  .  1
   Na  Na2  1  0.855503  0.517837  0.711006  0  .  1
   Na  Na3  1  0.355503  0.193168  0.711006  0  .  1
   Na  Na4  1  0.644497  0.806832  0.288994  0  .  1
   S  S5  1  0.610024  0.316958  0.220047  0  .  1
   S  S6  1  0.389976  0.683042  0.779953  0  .  1
   S  S7  1  0.889976  0.096911  0.779953  0  .  1
   S  S8  1  0.110024  0.903089  0.220047  0  .  1
   Co  Co9  1  0.250000  0.000000  0.000000  0  .  1
   Co  Co10  1  0.750000  0.000000  0.000000  0  .  1
 
