#\#CIF1.1
##########################################################################
#               Crystallographic Information Format file 
#               Produced by PyCifRW module
# 
#  This is a CIF file.  CIF has been adopted by the International
#  Union of Crystallography as the standard for data archiving and 
#  transmission.
#
#  For information on this file format, follow the CIF links at
#  http://www.iucr.org
##########################################################################

data_Na2FeO2
_symmetry_space_group_name_H-M          'P 1'
_cell_length_a                          3.00172949
_cell_length_b                          5.49650548615
_cell_length_c                          8.50738907
_cell_angle_alpha                       90.0
_cell_angle_beta                        90.0
_cell_angle_gamma                       105.846311
_chemical_name_systematic               'Generated by pymatgen'
_symmetry_Int_Tables_number             1
_chemical_formula_structural            Na2FeO2
_chemical_formula_sum                   'Na4 Fe2 O4'
_cell_volume                            135.029450868
_cell_formula_units_Z                   2
loop_
  _symmetry_equiv_pos_site_id
  _symmetry_equiv_pos_as_xyz
   1  'x, y, z'
 
loop_
  _atom_site_type_symbol
  _atom_site_label
  _atom_site_symmetry_multiplicity
  _atom_site_fract_x
  _atom_site_fract_y
  _atom_site_fract_z
  _atom_site_attached_hydrogens
  _atom_site_B_iso_or_equiv
  _atom_site_occupancy
   Na  Na1  1  0.143669  0.287337  0.667351  0  .  1
   Na  Na2  1  0.391249  0.782498  0.847100  0  .  1
   Na  Na3  1  0.856331  0.712663  0.167351  0  .  1
   Na  Na4  1  0.608751  0.217502  0.347100  0  .  1
   Fe  Fe5  1  0.122474  0.244949  0.003710  0  .  1
   Fe  Fe6  1  0.877526  0.755051  0.503710  0  .  1
   O  O7  1  0.272887  0.545775  0.404166  0  .  1
   O  O8  1  0.484792  0.969582  0.592563  0  .  1
   O  O9  1  0.727113  0.454225  0.904166  0  .  1
   O  O10  1  0.515208  0.030418  0.092563  0  .  1
 
