#\#CIF1.1
##########################################################################
#               Crystallographic Information Format file 
#               Produced by PyCifRW module
# 
#  This is a CIF file.  CIF has been adopted by the International
#  Union of Crystallography as the standard for data archiving and 
#  transmission.
#
#  For information on this file format, follow the CIF links at
#  http://www.iucr.org
##########################################################################

data_Na2La2Ti3O10
_symmetry_space_group_name_H-M          'P 1'
_cell_length_a                          3.8713622063
_cell_length_b                          3.87136220712
_cell_length_c                          14.6964137484
_cell_angle_alpha                       97.5684824713
_cell_angle_beta                        97.5684824737
_cell_angle_gamma                       89.9999999693
_chemical_name_systematic               'Generated by pymatgen'
_symmetry_Int_Tables_number             1
_chemical_formula_structural            Na2La2Ti3O10
_chemical_formula_sum                   'Na2 La2 Ti3 O10'
_cell_volume                            216.406906442
_cell_formula_units_Z                   1
loop_
  _symmetry_equiv_pos_site_id
  _symmetry_equiv_pos_as_xyz
   1  'x, y, z'
 
loop_
  _atom_site_type_symbol
  _atom_site_label
  _atom_site_symmetry_multiplicity
  _atom_site_fract_x
  _atom_site_fract_y
  _atom_site_fract_z
  _atom_site_attached_hydrogens
  _atom_site_B_iso_or_equiv
  _atom_site_occupancy
   O  O1  1  0.866747  0.366747  0.733495  0  .  1
   O  O2  1  0.366747  0.866747  0.733495  0  .  1
   O  O3  1  0.133253  0.633253  0.266505  0  .  1
   O  O4  1  0.633253  0.133253  0.266505  0  .  1
   O  O5  1  0.791381  0.791381  0.582761  0  .  1
   O  O6  1  0.208619  0.208619  0.417239  0  .  1
   O  O7  1  0.000000  0.500000  0.000000  0  .  1
   O  O8  1  0.067343  0.067343  0.134686  0  .  1
   O  O9  1  0.932657  0.932657  0.865314  0  .  1
   O  O10  1  0.500000  0.000000  0.000000  0  .  1
   Na  Na11  1  0.711778  0.711778  0.423556  0  .  1
   Na  Na12  1  0.288222  0.288222  0.576444  0  .  1
   Ti  Ti13  1  0.852196  0.852196  0.704393  0  .  1
   Ti  Ti14  1  0.147804  0.147804  0.295607  0  .  1
   Ti  Ti15  1  0.000000  0.000000  0.000000  0  .  1
   La  La16  1  0.575277  0.575277  0.150554  0  .  1
   La  La17  1  0.424723  0.424723  0.849446  0  .  1
 
