#\#CIF1.1
##########################################################################
#               Crystallographic Information Format file 
#               Produced by PyCifRW module
# 
#  This is a CIF file.  CIF has been adopted by the International
#  Union of Crystallography as the standard for data archiving and 
#  transmission.
#
#  For information on this file format, follow the CIF links at
#  http://www.iucr.org
##########################################################################

data_Na2Mn2S3
_symmetry_space_group_name_H-M          'P 1'
_cell_length_a                          6.94902336544
_cell_length_b                          10.047868414
_cell_length_c                          10.0478684085
_cell_angle_alpha                       83.4644597006
_cell_angle_beta                        70.2091581562
_cell_angle_gamma                       70.2091581213
_chemical_name_systematic               'Generated by pymatgen'
_symmetry_Int_Tables_number             1
_chemical_formula_structural            Na2Mn2S3
_chemical_formula_sum                   'Na8 Mn8 S12'
_cell_volume                            621.141601346
_cell_formula_units_Z                   4
loop_
  _symmetry_equiv_pos_site_id
  _symmetry_equiv_pos_as_xyz
   1  'x, y, z'
 
loop_
  _atom_site_type_symbol
  _atom_site_label
  _atom_site_symmetry_multiplicity
  _atom_site_fract_x
  _atom_site_fract_y
  _atom_site_fract_z
  _atom_site_attached_hydrogens
  _atom_site_B_iso_or_equiv
  _atom_site_occupancy
   Na  Na1  1  0.874956  0.012038  0.185201  0  .  1
   Na  Na2  1  0.625044  0.814799  0.987962  0  .  1
   Na  Na3  1  0.125044  0.987962  0.814799  0  .  1
   Na  Na4  1  0.374956  0.185201  0.012038  0  .  1
   Na  Na5  1  0.750000  0.718318  0.281682  0  .  1
   Na  Na6  1  0.250000  0.281682  0.718318  0  .  1
   Na  Na7  1  0.750000  0.428680  0.571320  0  .  1
   Na  Na8  1  0.250000  0.571320  0.428680  0  .  1
   S  S9  1  0.048025  0.770188  0.999775  0  .  1
   S  S10  1  0.548025  0.999775  0.770188  0  .  1
   S  S11  1  0.951975  0.229812  0.000225  0  .  1
   S  S12  1  0.445175  0.421018  0.856026  0  .  1
   S  S13  1  0.054825  0.143974  0.578982  0  .  1
   S  S14  1  0.554825  0.578982  0.143974  0  .  1
   S  S15  1  0.451975  0.000225  0.229812  0  .  1
   S  S16  1  0.945175  0.856026  0.421018  0  .  1
   S  S17  1  0.933472  0.570541  0.720881  0  .  1
   S  S18  1  0.566528  0.279119  0.429459  0  .  1
   S  S19  1  0.066528  0.429459  0.279119  0  .  1
   S  S20  1  0.433472  0.720881  0.570541  0  .  1
   Mn  Mn21  1  0.245071  0.917105  0.445560  0  .  1
   Mn  Mn22  1  0.754929  0.082895  0.554440  0  .  1
   Mn  Mn23  1  0.745071  0.445560  0.917105  0  .  1
   Mn  Mn24  1  0.201602  0.636335  0.784358  0  .  1
   Mn  Mn25  1  0.298398  0.215642  0.363665  0  .  1
   Mn  Mn26  1  0.798398  0.363665  0.215642  0  .  1
   Mn  Mn27  1  0.701602  0.784358  0.636335  0  .  1
   Mn  Mn28  1  0.254929  0.554440  0.082895  0  .  1
 
