#\#CIF1.1
##########################################################################
#               Crystallographic Information Format file 
#               Produced by PyCifRW module
# 
#  This is a CIF file.  CIF has been adopted by the International
#  Union of Crystallography as the standard for data archiving and 
#  transmission.
#
#  For information on this file format, follow the CIF links at
#  http://www.iucr.org
##########################################################################

data_Na2MnO3
_symmetry_space_group_name_H-M          'P 1'
_cell_length_a                          6.41761037264
_cell_length_b                          5.29300129474
_cell_length_c                          10.9253304912
_cell_angle_alpha                       85.7062830162
_cell_angle_beta                        155.962795126
_cell_angle_gamma                       105.660096075
_chemical_name_systematic               'Generated by pymatgen'
_symmetry_Int_Tables_number             1
_chemical_formula_structural            Na2MnO3
_chemical_formula_sum                   'Na4 Mn2 O6'
_cell_volume                            130.875089579
_cell_formula_units_Z                   2
loop_
  _symmetry_equiv_pos_site_id
  _symmetry_equiv_pos_as_xyz
   1  'x, y, z'
 
loop_
  _atom_site_type_symbol
  _atom_site_label
  _atom_site_symmetry_multiplicity
  _atom_site_fract_x
  _atom_site_fract_y
  _atom_site_fract_z
  _atom_site_attached_hydrogens
  _atom_site_B_iso_or_equiv
  _atom_site_occupancy
   Na  Na1  1  0.503877  0.495122  0.001798  0  .  1
   Na  Na2  1  0.182369  0.182745  0.340173  0  .  1
   Na  Na3  1  0.828097  0.816798  0.664257  0  .  1
   Na  Na4  1  0.004996  0.500122  0.001761  0  .  1
   Mn  Mn5  1  0.340294  0.833807  0.670553  0  .  1
   Mn  Mn6  1  0.671618  0.164887  0.336521  0  .  1
   O  O7  1  0.318524  0.123990  0.759578  0  .  1
   O  O8  1  0.698271  0.876920  0.249476  0  .  1
   O  O9  1  0.189248  0.499868  0.494555  0  .  1
   O  O10  1  0.070866  0.876088  0.136114  0  .  1
   O  O11  1  0.944499  0.121973  0.872875  0  .  1
   O  O12  1  0.820135  0.499784  0.511297  0  .  1
 
