#\#CIF1.1
##########################################################################
#               Crystallographic Information Format file 
#               Produced by PyCifRW module
# 
#  This is a CIF file.  CIF has been adopted by the International
#  Union of Crystallography as the standard for data archiving and 
#  transmission.
#
#  For information on this file format, follow the CIF links at
#  http://www.iucr.org
##########################################################################

data_Na2Mn2O3
_symmetry_space_group_name_H-M          'P 1'
_cell_length_a                          6.19043532716
_cell_length_b                          6.34398373
_cell_length_c                          5.93851457533
_cell_angle_alpha                       90.0
_cell_angle_beta                        116.365092996
_cell_angle_gamma                       90.0
_chemical_name_systematic               'Generated by pymatgen'
_symmetry_Int_Tables_number             1
_chemical_formula_structural            Na2Mn2O3
_chemical_formula_sum                   'Na4 Mn4 O6'
_cell_volume                            208.958767383
_cell_formula_units_Z                   2
loop_
  _symmetry_equiv_pos_site_id
  _symmetry_equiv_pos_as_xyz
   1  'x, y, z'
 
loop_
  _atom_site_type_symbol
  _atom_site_label
  _atom_site_symmetry_multiplicity
  _atom_site_fract_x
  _atom_site_fract_y
  _atom_site_fract_z
  _atom_site_attached_hydrogens
  _atom_site_B_iso_or_equiv
  _atom_site_occupancy
   Na  Na1  1  0.214687  0.648818  0.925465  0  .  1
   Na  Na2  1  0.214687  0.851182  0.425465  0  .  1
   Na  Na3  1  0.785313  0.148818  0.574535  0  .  1
   Na  Na4  1  0.785313  0.351182  0.074535  0  .  1
   Mn  Mn5  1  0.316953  0.372158  0.544303  0  .  1
   Mn  Mn6  1  0.683047  0.872158  0.955697  0  .  1
   Mn  Mn7  1  0.316953  0.127842  0.044303  0  .  1
   Mn  Mn8  1  0.683047  0.627842  0.455697  0  .  1
   O  O9  1  0.000000  0.500000  0.500000  0  .  1
   O  O10  1  0.000000  0.000000  0.000000  0  .  1
   O  O11  1  0.415615  0.098055  0.747805  0  .  1
   O  O12  1  0.584385  0.598055  0.752195  0  .  1
   O  O13  1  0.415615  0.401945  0.247805  0  .  1
   O  O14  1  0.584385  0.901945  0.252195  0  .  1
 
