#\#CIF1.1
##########################################################################
#               Crystallographic Information Format file 
#               Produced by PyCifRW module
# 
#  This is a CIF file.  CIF has been adopted by the International
#  Union of Crystallography as the standard for data archiving and 
#  transmission.
#
#  For information on this file format, follow the CIF links at
#  http://www.iucr.org
##########################################################################

data_Na2NiO3
_symmetry_space_group_name_H-M          'P 1'
_cell_length_a                          5.24138177493
_cell_length_b                          5.24138177493
_cell_length_c                          5.62082543167
_cell_angle_alpha                       80.776343035
_cell_angle_beta                        99.223656965
_cell_angle_gamma                       59.9947946008
_chemical_name_systematic               'Generated by pymatgen'
_symmetry_Int_Tables_number             1
_chemical_formula_structural            Na2NiO3
_chemical_formula_sum                   'Na4 Ni2 O6'
_cell_volume                            126.662346272
_cell_formula_units_Z                   2
loop_
  _symmetry_equiv_pos_site_id
  _symmetry_equiv_pos_as_xyz
   1  'x, y, z'
 
loop_
  _atom_site_type_symbol
  _atom_site_label
  _atom_site_symmetry_multiplicity
  _atom_site_fract_x
  _atom_site_fract_y
  _atom_site_fract_z
  _atom_site_attached_hydrogens
  _atom_site_B_iso_or_equiv
  _atom_site_occupancy
   Na  Na1  1  0.157393  0.157393  0.500000  0  .  1
   Na  Na2  1  0.842607  0.842607  0.500000  0  .  1
   Na  Na3  1  0.500000  0.500000  0.500000  0  .  1
   Na  Na4  1  0.000000  0.000000  0.000000  0  .  1
   Ni  Ni5  1  0.666930  0.666930  0.000000  0  .  1
   Ni  Ni6  1  0.333070  0.333070  0.000000  0  .  1
   O  O7  1  0.308203  0.691797  0.801259  0  .  1
   O  O8  1  0.067034  0.555035  0.197669  0  .  1
   O  O9  1  0.444965  0.932966  0.197669  0  .  1
   O  O10  1  0.932966  0.444965  0.802331  0  .  1
   O  O11  1  0.555035  0.067034  0.802331  0  .  1
   O  O12  1  0.691797  0.308203  0.198741  0  .  1
 
