#\#CIF1.1
##########################################################################
#               Crystallographic Information Format file 
#               Produced by PyCifRW module
# 
#  This is a CIF file.  CIF has been adopted by the International
#  Union of Crystallography as the standard for data archiving and 
#  transmission.
#
#  For information on this file format, follow the CIF links at
#  http://www.iucr.org
##########################################################################

data_Na2Ni2O3
_symmetry_space_group_name_H-M          'P 1'
_cell_length_a                          5.86489935573
_cell_length_b                          5.72293013
_cell_length_c                          6.14082151073
_cell_angle_alpha                       90.0
_cell_angle_beta                        119.836978955
_cell_angle_gamma                       90.0
_chemical_name_systematic               'Generated by pymatgen'
_symmetry_Int_Tables_number             1
_chemical_formula_structural            Na2Ni2O3
_chemical_formula_sum                   'Na4 Ni4 O6'
_cell_volume                            178.791633139
_cell_formula_units_Z                   2
loop_
  _symmetry_equiv_pos_site_id
  _symmetry_equiv_pos_as_xyz
   1  'x, y, z'
 
loop_
  _atom_site_type_symbol
  _atom_site_label
  _atom_site_symmetry_multiplicity
  _atom_site_fract_x
  _atom_site_fract_y
  _atom_site_fract_z
  _atom_site_attached_hydrogens
  _atom_site_B_iso_or_equiv
  _atom_site_occupancy
   Na  Na1  1  0.141228  0.657689  0.899162  0  .  1
   Na  Na2  1  0.141228  0.842311  0.399162  0  .  1
   Na  Na3  1  0.858772  0.157689  0.600838  0  .  1
   Na  Na4  1  0.858772  0.342311  0.100838  0  .  1
   Ni  Ni5  1  0.341350  0.369274  0.579380  0  .  1
   Ni  Ni6  1  0.658650  0.869274  0.920620  0  .  1
   Ni  Ni7  1  0.341350  0.130726  0.079380  0  .  1
   Ni  Ni8  1  0.658650  0.630726  0.420621  0  .  1
   O  O9  1  0.000000  0.500000  0.500000  0  .  1
   O  O10  1  0.000000  0.000000  0.000000  0  .  1
   O  O11  1  0.351297  0.081230  0.757352  0  .  1
   O  O12  1  0.351297  0.418770  0.257352  0  .  1
   O  O13  1  0.648703  0.581230  0.742648  0  .  1
   O  O14  1  0.648703  0.918770  0.242648  0  .  1
 
