#\#CIF1.1
##########################################################################
#               Crystallographic Information Format file 
#               Produced by PyCifRW module
# 
#  This is a CIF file.  CIF has been adopted by the International
#  Union of Crystallography as the standard for data archiving and 
#  transmission.
#
#  For information on this file format, follow the CIF links at
#  http://www.iucr.org
##########################################################################

data_Na2NiO2
_symmetry_space_group_name_H-M          'P 1'
_cell_length_a                          2.86542028
_cell_length_b                          5.30536521929
_cell_length_c                          8.30113035
_cell_angle_alpha                       90.0
_cell_angle_beta                        90.0
_cell_angle_gamma                       105.667200243
_chemical_name_systematic               'Generated by pymatgen'
_symmetry_Int_Tables_number             1
_chemical_formula_structural            Na2NiO2
_chemical_formula_sum                   'Na4 Ni2 O4'
_cell_volume                            121.506050543
_cell_formula_units_Z                   2
loop_
  _symmetry_equiv_pos_site_id
  _symmetry_equiv_pos_as_xyz
   1  'x, y, z'
 
loop_
  _atom_site_type_symbol
  _atom_site_label
  _atom_site_symmetry_multiplicity
  _atom_site_fract_x
  _atom_site_fract_y
  _atom_site_fract_z
  _atom_site_attached_hydrogens
  _atom_site_B_iso_or_equiv
  _atom_site_occupancy
   O  O1  1  0.722312  0.444623  0.093532  0  .  1
   O  O2  1  0.519834  0.039668  0.910162  0  .  1
   O  O3  1  0.277689  0.555377  0.593531  0  .  1
   O  O4  1  0.480165  0.960331  0.410162  0  .  1
   Na  Na5  1  0.395260  0.790521  0.152445  0  .  1
   Na  Na6  1  0.851435  0.702869  0.830780  0  .  1
   Na  Na7  1  0.604740  0.209480  0.652444  0  .  1
   Na  Na8  1  0.148566  0.297132  0.330779  0  .  1
   Ni  Ni9  1  0.122046  0.244092  0.998383  0  .  1
   Ni  Ni10  1  0.877955  0.755909  0.498383  0  .  1
 
