#\#CIF1.1
##########################################################################
#               Crystallographic Information Format file 
#               Produced by PyCifRW module
# 
#  This is a CIF file.  CIF has been adopted by the International
#  Union of Crystallography as the standard for data archiving and 
#  transmission.
#
#  For information on this file format, follow the CIF links at
#  http://www.iucr.org
##########################################################################

data_Na2Ti6O13
_symmetry_space_group_name_H-M          'P 1'
_cell_length_a                          3.76050091
_cell_length_b                          7.86588541188
_cell_length_c                          9.29199212036
_cell_angle_alpha                       98.7917724859
_cell_angle_beta                        90.0
_cell_angle_gamma                       103.829806389
_chemical_name_systematic               'Generated by pymatgen'
_symmetry_Int_Tables_number             1
_chemical_formula_structural            Na2Ti6O13
_chemical_formula_sum                   'Na2 Ti6 O13'
_cell_volume                            263.558993446
_cell_formula_units_Z                   1
loop_
  _symmetry_equiv_pos_site_id
  _symmetry_equiv_pos_as_xyz
   1  'x, y, z'
 
loop_
  _atom_site_type_symbol
  _atom_site_label
  _atom_site_symmetry_multiplicity
  _atom_site_fract_x
  _atom_site_fract_y
  _atom_site_fract_z
  _atom_site_attached_hydrogens
  _atom_site_B_iso_or_equiv
  _atom_site_occupancy
   O  O1  1  0.837617  0.675235  0.087809  0  .  1
   O  O2  1  0.162383  0.324765  0.912191  0  .  1
   O  O3  1  0.644108  0.288216  0.117507  0  .  1
   O  O4  1  0.355892  0.711784  0.882493  0  .  1
   O  O5  1  0.873553  0.747106  0.386231  0  .  1
   O  O6  1  0.126447  0.252894  0.613769  0  .  1
   O  O7  1  0.702402  0.404804  0.429046  0  .  1
   O  O8  1  0.297598  0.595196  0.570954  0  .  1
   O  O9  1  0.000000  0.000000  0.000000  0  .  1
   O  O10  1  0.240686  0.481371  0.245898  0  .  1
   O  O11  1  0.759314  0.518629  0.754102  0  .  1
   O  O12  1  0.070078  0.140156  0.291966  0  .  1
   O  O13  1  0.929922  0.859844  0.708034  0  .  1
   Na  Na14  1  0.462554  0.925108  0.269696  0  .  1
   Na  Na15  1  0.537446  0.074892  0.730304  0  .  1
   Ti  Ti16  1  0.834187  0.668375  0.564696  0  .  1
   Ti  Ti17  1  0.165813  0.331625  0.435304  0  .  1
   Ti  Ti18  1  0.885203  0.770407  0.904819  0  .  1
   Ti  Ti19  1  0.114797  0.229593  0.095181  0  .  1
   Ti  Ti20  1  0.226864  0.453727  0.769546  0  .  1
   Ti  Ti21  1  0.773136  0.546273  0.230454  0  .  1
 
