#\#CIF1.1
##########################################################################
#               Crystallographic Information Format file 
#               Produced by PyCifRW module
# 
#  This is a CIF file.  CIF has been adopted by the International
#  Union of Crystallography as the standard for data archiving and 
#  transmission.
#
#  For information on this file format, follow the CIF links at
#  http://www.iucr.org
##########################################################################

data_Na2Ti2O5
_symmetry_space_group_name_H-M          'P 1'
_cell_length_a                          5.46780674858
_cell_length_b                          23.98809799
_cell_length_c                          8.86842018937
_cell_angle_alpha                       90.0
_cell_angle_beta                        90.3957695124
_cell_angle_gamma                       90.0
_chemical_name_systematic               'Generated by pymatgen'
_symmetry_Int_Tables_number             1
_chemical_formula_structural            Na2Ti2O5
_chemical_formula_sum                   'Na16 Ti16 O40'
_cell_volume                            1163.17449818
_cell_formula_units_Z                   8
loop_
  _symmetry_equiv_pos_site_id
  _symmetry_equiv_pos_as_xyz
   1  'x, y, z'
 
loop_
  _atom_site_type_symbol
  _atom_site_label
  _atom_site_symmetry_multiplicity
  _atom_site_fract_x
  _atom_site_fract_y
  _atom_site_fract_z
  _atom_site_attached_hydrogens
  _atom_site_B_iso_or_equiv
  _atom_site_occupancy
   Na  Na1  1  0.196314  0.260383  0.523751  0  .  1
   Na  Na2  1  0.196314  0.239617  0.023751  0  .  1
   Na  Na3  1  0.216752  0.721196  0.721738  0  .  1
   Na  Na4  1  0.216752  0.778804  0.221738  0  .  1
   Na  Na5  1  0.278765  0.472428  0.901600  0  .  1
   Na  Na6  1  0.278765  0.027572  0.401600  0  .  1
   Na  Na7  1  0.309748  0.984955  0.841491  0  .  1
   Na  Na8  1  0.309748  0.515045  0.341491  0  .  1
   Na  Na9  1  0.690252  0.484955  0.658509  0  .  1
   Na  Na10  1  0.690252  0.015045  0.158509  0  .  1
   Na  Na11  1  0.721235  0.972428  0.598400  0  .  1
   Na  Na12  1  0.721235  0.527572  0.098400  0  .  1
   Na  Na13  1  0.783248  0.221196  0.778262  0  .  1
   Na  Na14  1  0.783248  0.278804  0.278262  0  .  1
   Na  Na15  1  0.803686  0.760383  0.976249  0  .  1
   Na  Na16  1  0.803686  0.739617  0.476249  0  .  1
   Ti  Ti17  1  0.170613  0.409725  0.542271  0  .  1
   Ti  Ti18  1  0.170613  0.090275  0.042271  0  .  1
   Ti  Ti19  1  0.194471  0.885470  0.516522  0  .  1
   Ti  Ti20  1  0.194471  0.614530  0.016522  0  .  1
   Ti  Ti21  1  0.307731  0.133283  0.695549  0  .  1
   Ti  Ti22  1  0.307731  0.366717  0.195549  0  .  1
   Ti  Ti23  1  0.328010  0.839336  0.862146  0  .  1
   Ti  Ti24  1  0.328010  0.660664  0.362146  0  .  1
   Ti  Ti25  1  0.671990  0.339336  0.637854  0  .  1
   Ti  Ti26  1  0.671990  0.160664  0.137854  0  .  1
   Ti  Ti27  1  0.692269  0.633283  0.804451  0  .  1
   Ti  Ti28  1  0.692269  0.866717  0.304451  0  .  1
   Ti  Ti29  1  0.805529  0.385470  0.983478  0  .  1
   Ti  Ti30  1  0.805529  0.114530  0.483478  0  .  1
   Ti  Ti31  1  0.829387  0.909725  0.957729  0  .  1
   Ti  Ti32  1  0.829387  0.590275  0.457729  0  .  1
   O  O33  1  0.142273  0.110552  0.521635  0  .  1
   O  O34  1  0.142273  0.389448  0.021635  0  .  1
   O  O35  1  0.164951  0.901490  0.932486  0  .  1
   O  O36  1  0.164951  0.598510  0.432486  0  .  1
   O  O37  1  0.210986  0.199824  0.750962  0  .  1
   O  O38  1  0.210986  0.300176  0.250962  0  .  1
   O  O39  1  0.246435  0.079523  0.840302  0  .  1
   O  O40  1  0.267115  0.468745  0.639134  0  .  1
   O  O41  1  0.246435  0.420477  0.340303  0  .  1
   O  O42  1  0.267115  0.031255  0.139134  0  .  1
   O  O43  1  0.228637  0.778901  0.952826  0  .  1
   O  O44  1  0.228637  0.721099  0.452826  0  .  1
   O  O45  1  0.252996  0.830790  0.660058  0  .  1
   O  O46  1  0.252996  0.669210  0.160058  0  .  1
   O  O47  1  0.289945  0.951930  0.576288  0  .  1
   O  O48  1  0.289945  0.548070  0.076288  0  .  1
   O  O49  1  0.335488  0.346504  0.608775  0  .  1
   O  O50  1  0.335488  0.153496  0.108775  0  .  1
   O  O51  1  0.357268  0.636336  0.842820  0  .  1
   O  O52  1  0.357268  0.863664  0.342820  0  .  1
   O  O53  1  0.642732  0.136336  0.657180  0  .  1
   O  O54  1  0.642732  0.363664  0.157180  0  .  1
   O  O55  1  0.664512  0.846504  0.891225  0  .  1
   O  O56  1  0.664512  0.653496  0.391225  0  .  1
   O  O57  1  0.710055  0.451930  0.923712  0  .  1
   O  O58  1  0.710055  0.048070  0.423712  0  .  1
   O  O59  1  0.747004  0.330790  0.839942  0  .  1
   O  O60  1  0.747004  0.169210  0.339942  0  .  1
   O  O61  1  0.771363  0.278901  0.547174  0  .  1
   O  O62  1  0.771363  0.221099  0.047174  0  .  1
   O  O63  1  0.732885  0.968745  0.860866  0  .  1
   O  O64  1  0.753565  0.579523  0.659698  0  .  1
   O  O65  1  0.732885  0.531255  0.360866  0  .  1
   O  O66  1  0.753565  0.920477  0.159697  0  .  1
   O  O67  1  0.789014  0.699824  0.749038  0  .  1
   O  O68  1  0.789014  0.800176  0.249038  0  .  1
   O  O69  1  0.835049  0.401490  0.567514  0  .  1
   O  O70  1  0.835049  0.098510  0.067514  0  .  1
   O  O71  1  0.857727  0.610552  0.978365  0  .  1
   O  O72  1  0.857727  0.889448  0.478365  0  .  1
 
