#\#CIF1.1
##########################################################################
#               Crystallographic Information Format file 
#               Produced by PyCifRW module
# 
#  This is a CIF file.  CIF has been adopted by the International
#  Union of Crystallography as the standard for data archiving and 
#  transmission.
#
#  For information on this file format, follow the CIF links at
#  http://www.iucr.org
##########################################################################

data_Na2TiO3
_symmetry_space_group_name_H-M          'P 1'
_cell_length_a                          5.37237174096
_cell_length_b                          5.37441465386
_cell_length_c                          11.0689568534
_cell_angle_alpha                       85.1779440664
_cell_angle_beta                        99.682399961
_cell_angle_gamma                       119.987432761
_chemical_name_systematic               'Generated by pymatgen'
_symmetry_Int_Tables_number             1
_chemical_formula_structural            Na2TiO3
_chemical_formula_sum                   'Na8 Ti4 O12'
_cell_volume                            272.871767302
_cell_formula_units_Z                   4
loop_
  _symmetry_equiv_pos_site_id
  _symmetry_equiv_pos_as_xyz
   1  'x, y, z'
 
loop_
  _atom_site_type_symbol
  _atom_site_label
  _atom_site_symmetry_multiplicity
  _atom_site_fract_x
  _atom_site_fract_y
  _atom_site_fract_z
  _atom_site_attached_hydrogens
  _atom_site_B_iso_or_equiv
  _atom_site_occupancy
   Na  Na1  1  0.158648  0.841237  0.499055  0  .  1
   Na  Na2  1  0.000000  0.500000  0.000000  0  .  1
   Na  Na3  1  0.081656  0.163313  0.250000  0  .  1
   Na  Na4  1  0.682590  0.841237  0.000945  0  .  1
   Na  Na5  1  0.500000  0.500000  0.500000  0  .  1
   Na  Na6  1  0.317410  0.158763  0.999055  0  .  1
   Na  Na7  1  0.918344  0.836687  0.750000  0  .  1
   Na  Na8  1  0.841352  0.158763  0.500945  0  .  1
   Ti  Ti9  1  0.253349  0.506698  0.750000  0  .  1
   Ti  Ti10  1  0.414799  0.829597  0.250000  0  .  1
   Ti  Ti11  1  0.585201  0.170403  0.750000  0  .  1
   Ti  Ti12  1  0.746651  0.493302  0.250000  0  .  1
   O  O13  1  0.048584  0.787997  0.147867  0  .  1
   O  O14  1  0.330511  0.834242  0.851009  0  .  1
   O  O15  1  0.116922  0.544313  0.350638  0  .  1
   O  O16  1  0.503731  0.834242  0.648991  0  .  1
   O  O17  1  0.260587  0.212003  0.647867  0  .  1
   O  O18  1  0.572609  0.455687  0.850638  0  .  1
   O  O19  1  0.427391  0.544313  0.149362  0  .  1
   O  O20  1  0.739413  0.787997  0.352133  0  .  1
   O  O21  1  0.496269  0.165758  0.351009  0  .  1
   O  O22  1  0.883078  0.455687  0.649362  0  .  1
   O  O23  1  0.669489  0.165758  0.148991  0  .  1
   O  O24  1  0.951416  0.212003  0.852133  0  .  1
 
