#\#CIF1.1
##########################################################################
#               Crystallographic Information Format file 
#               Produced by PyCifRW module
# 
#  This is a CIF file.  CIF has been adopted by the International
#  Union of Crystallography as the standard for data archiving and 
#  transmission.
#
#  For information on this file format, follow the CIF links at
#  http://www.iucr.org
##########################################################################

data_Na2Ti3O7
_symmetry_space_group_name_H-M          'P 1'
_cell_length_a                          3.82046029
_cell_length_b                          8.66178771131
_cell_length_c                          9.2401939782
_cell_angle_alpha                       101.738991351
_cell_angle_beta                        90.0
_cell_angle_gamma                       90.0
_chemical_name_systematic               'Generated by pymatgen'
_symmetry_Int_Tables_number             1
_chemical_formula_structural            Na2Ti3O7
_chemical_formula_sum                   'Na4 Ti6 O14'
_cell_volume                            299.381200373
_cell_formula_units_Z                   2
loop_
  _symmetry_equiv_pos_site_id
  _symmetry_equiv_pos_as_xyz
   1  'x, y, z'
 
loop_
  _atom_site_type_symbol
  _atom_site_label
  _atom_site_symmetry_multiplicity
  _atom_site_fract_x
  _atom_site_fract_y
  _atom_site_fract_z
  _atom_site_attached_hydrogens
  _atom_site_B_iso_or_equiv
  _atom_site_occupancy
   O  O1  1  0.750000  0.084944  0.956046  0  .  1
   O  O2  1  0.250000  0.915056  0.043954  0  .  1
   O  O3  1  0.750000  0.194981  0.682109  0  .  1
   O  O4  1  0.250000  0.805019  0.317891  0  .  1
   O  O5  1  0.750000  0.985860  0.246930  0  .  1
   O  O6  1  0.250000  0.014140  0.753070  0  .  1
   O  O7  1  0.750000  0.675931  0.091560  0  .  1
   O  O8  1  0.250000  0.324069  0.908440  0  .  1
   O  O9  1  0.750000  0.556805  0.345728  0  .  1
   O  O10  1  0.250000  0.443195  0.654272  0  .  1
   O  O11  1  0.250000  0.218587  0.186746  0  .  1
   O  O12  1  0.750000  0.781413  0.813254  0  .  1
   O  O13  1  0.250000  0.150821  0.461305  0  .  1
   O  O14  1  0.750000  0.849179  0.538695  0  .  1
   Na  Na15  1  0.750000  0.500394  0.842429  0  .  1
   Na  Na16  1  0.250000  0.499606  0.157571  0  .  1
   Na  Na17  1  0.750000  0.317919  0.408746  0  .  1
   Na  Na18  1  0.250000  0.682081  0.591254  0  .  1
   Ti  Ti19  1  0.750000  0.968654  0.720680  0  .  1
   Ti  Ti20  1  0.250000  0.031346  0.279320  0  .  1
   Ti  Ti21  1  0.750000  0.752065  0.325032  0  .  1
   Ti  Ti22  1  0.250000  0.247935  0.674968  0  .  1
   Ti  Ti23  1  0.750000  0.853267  0.015460  0  .  1
   Ti  Ti24  1  0.250000  0.146733  0.984540  0  .  1
 
