#\#CIF1.1
##########################################################################
#               Crystallographic Information Format file 
#               Produced by PyCifRW module
# 
#  This is a CIF file.  CIF has been adopted by the International
#  Union of Crystallography as the standard for data archiving and 
#  transmission.
#
#  For information on this file format, follow the CIF links at
#  http://www.iucr.org
##########################################################################

data_Na2V2O5
_symmetry_space_group_name_H-M          'P 1'
_cell_length_a                          12.4444468555
_cell_length_b                          5.44023023
_cell_length_c                          8.71149403134
_cell_angle_alpha                       90.0
_cell_angle_beta                        102.41085712
_cell_angle_gamma                       90.0
_chemical_name_systematic               'Generated by pymatgen'
_symmetry_Int_Tables_number             1
_chemical_formula_structural            Na2V2O5
_chemical_formula_sum                   'Na8 V8 O20'
_cell_volume                            575.991771343
_cell_formula_units_Z                   4
loop_
  _symmetry_equiv_pos_site_id
  _symmetry_equiv_pos_as_xyz
   1  'x, y, z'
 
loop_
  _atom_site_type_symbol
  _atom_site_label
  _atom_site_symmetry_multiplicity
  _atom_site_fract_x
  _atom_site_fract_y
  _atom_site_fract_z
  _atom_site_attached_hydrogens
  _atom_site_B_iso_or_equiv
  _atom_site_occupancy
   Na  Na1  1  0.031096  0.697254  0.852719  0  .  1
   Na  Na2  1  0.057353  0.268033  0.615154  0  .  1
   Na  Na3  1  0.442647  0.768034  0.384846  0  .  1
   Na  Na4  1  0.531096  0.802746  0.852719  0  .  1
   Na  Na5  1  0.468904  0.197254  0.147281  0  .  1
   Na  Na6  1  0.557353  0.231966  0.615154  0  .  1
   Na  Na7  1  0.942647  0.731966  0.384846  0  .  1
   Na  Na8  1  0.968904  0.302746  0.147281  0  .  1
   V  V9  1  0.226148  0.801002  0.602358  0  .  1
   V  V10  1  0.326389  0.666592  0.977798  0  .  1
   V  V11  1  0.173611  0.166592  0.022202  0  .  1
   V  V12  1  0.273852  0.301002  0.397642  0  .  1
   V  V13  1  0.726148  0.698998  0.602358  0  .  1
   V  V14  1  0.826389  0.833408  0.977798  0  .  1
   V  V15  1  0.673611  0.333408  0.022202  0  .  1
   V  V16  1  0.773852  0.198998  0.397642  0  .  1
   O  O17  1  0.060649  0.267959  0.886617  0  .  1
   O  O18  1  0.091376  0.712199  0.603784  0  .  1
   O  O19  1  0.297965  0.340825  0.995744  0  .  1
   O  O20  1  0.226381  0.133242  0.559204  0  .  1
   O  O21  1  0.160759  0.242491  0.226081  0  .  1
   O  O22  1  0.339241  0.742491  0.773919  0  .  1
   O  O23  1  0.273619  0.633242  0.440796  0  .  1
   O  O24  1  0.202035  0.840825  0.004256  0  .  1
   O  O25  1  0.408624  0.212199  0.396216  0  .  1
   O  O26  1  0.560649  0.232041  0.886617  0  .  1
   O  O27  1  0.439351  0.767959  0.113383  0  .  1
   O  O28  1  0.591376  0.787801  0.603784  0  .  1
   O  O29  1  0.797965  0.159175  0.995744  0  .  1
   O  O30  1  0.726381  0.366758  0.559204  0  .  1
   O  O31  1  0.660759  0.257509  0.226081  0  .  1
   O  O32  1  0.839241  0.757509  0.773919  0  .  1
   O  O33  1  0.773619  0.866758  0.440796  0  .  1
   O  O34  1  0.702035  0.659175  0.004256  0  .  1
   O  O35  1  0.908624  0.287801  0.396216  0  .  1
   O  O36  1  0.939351  0.732041  0.113383  0  .  1
 
