#\#CIF1.1
##########################################################################
#               Crystallographic Information Format file 
#               Produced by PyCifRW module
# 
#  This is a CIF file.  CIF has been adopted by the International
#  Union of Crystallography as the standard for data archiving and 
#  transmission.
#
#  For information on this file format, follow the CIF links at
#  http://www.iucr.org
##########################################################################

data_Na2V3O7
_symmetry_space_group_name_H-M          'P 1'
_cell_length_a                          11.0942349
_cell_length_b                          11.0942352054
_cell_length_c                          9.70143029
_cell_angle_alpha                       90.0
_cell_angle_beta                        90.0
_cell_angle_gamma                       119.999999054
_chemical_name_systematic               'Generated by pymatgen'
_symmetry_Int_Tables_number             1
_chemical_formula_structural            Na2V3O7
_chemical_formula_sum                   'Na12 V18 O42'
_cell_volume                            1034.09664527
_cell_formula_units_Z                   6
loop_
  _symmetry_equiv_pos_site_id
  _symmetry_equiv_pos_as_xyz
   1  'x, y, z'
 
loop_
  _atom_site_type_symbol
  _atom_site_label
  _atom_site_symmetry_multiplicity
  _atom_site_fract_x
  _atom_site_fract_y
  _atom_site_fract_z
  _atom_site_attached_hydrogens
  _atom_site_B_iso_or_equiv
  _atom_site_occupancy
   Na  Na1  1  0.521528  0.029292  0.248875  0  .  1
   Na  Na2  1  0.029292  0.507764  0.751125  0  .  1
   Na  Na3  1  0.478472  0.970708  0.751125  0  .  1
   Na  Na4  1  0.492236  0.521528  0.751125  0  .  1
   Na  Na5  1  0.666667  0.333333  0.568189  0  .  1
   Na  Na6  1  0.970708  0.492236  0.248875  0  .  1
   Na  Na7  1  0.507764  0.478472  0.248875  0  .  1
   Na  Na8  1  0.333333  0.666667  0.070422  0  .  1
   Na  Na9  1  0.000000  0.000000  0.000000  0  .  1
   Na  Na10  1  0.666667  0.333333  0.929578  0  .  1
   Na  Na11  1  0.000000  0.000000  0.500000  0  .  1
   Na  Na12  1  0.333333  0.666667  0.431811  0  .  1
   V  V13  1  0.186053  0.869866  0.900041  0  .  1
   V  V14  1  0.792755  0.682953  0.401045  0  .  1
   V  V15  1  0.315272  0.148408  0.750538  0  .  1
   V  V16  1  0.682953  0.890199  0.598955  0  .  1
   V  V17  1  0.869866  0.683813  0.099959  0  .  1
   V  V18  1  0.833136  0.684728  0.750538  0  .  1
   V  V19  1  0.316187  0.186053  0.099959  0  .  1
   V  V20  1  0.317047  0.109801  0.401045  0  .  1
   V  V21  1  0.684728  0.851591  0.249462  0  .  1
   V  V22  1  0.890199  0.207245  0.401045  0  .  1
   V  V23  1  0.207245  0.317047  0.598955  0  .  1
   V  V24  1  0.166864  0.315272  0.249462  0  .  1
   V  V25  1  0.130134  0.316187  0.900041  0  .  1
   V  V26  1  0.851591  0.166864  0.750538  0  .  1
   V  V27  1  0.813947  0.130134  0.099959  0  .  1
   V  V28  1  0.148408  0.833136  0.249462  0  .  1
   V  V29  1  0.683813  0.813947  0.900041  0  .  1
   V  V30  1  0.109801  0.792755  0.598955  0  .  1
   O  O31  1  0.833058  0.080449  0.567091  0  .  1
   O  O32  1  0.166942  0.919551  0.432910  0  .  1
   O  O33  1  0.833988  0.521676  0.064542  0  .  1
   O  O34  1  0.331622  0.480339  0.563040  0  .  1
   O  O35  1  0.080449  0.247392  0.432910  0  .  1
   O  O36  1  0.756123  0.051259  0.288938  0  .  1
   O  O37  1  0.480339  0.148717  0.436960  0  .  1
   O  O38  1  0.214909  0.727104  0.247810  0  .  1
   O  O39  1  0.174008  0.237992  0.067621  0  .  1
   O  O40  1  0.051259  0.295136  0.711062  0  .  1
   O  O41  1  0.729575  0.701841  0.211291  0  .  1
   O  O42  1  0.519661  0.851283  0.563040  0  .  1
   O  O43  1  0.478324  0.312312  0.064542  0  .  1
   O  O44  1  0.027734  0.729575  0.788709  0  .  1
   O  O45  1  0.237992  0.063985  0.932379  0  .  1
   O  O46  1  0.148717  0.668378  0.563040  0  .  1
   O  O47  1  0.972266  0.270425  0.211291  0  .  1
   O  O48  1  0.948741  0.704864  0.288938  0  .  1
   O  O49  1  0.298159  0.027734  0.211291  0  .  1
   O  O50  1  0.687688  0.166012  0.064542  0  .  1
   O  O51  1  0.063985  0.825992  0.067621  0  .  1
   O  O52  1  0.521676  0.687688  0.935458  0  .  1
   O  O53  1  0.752608  0.833058  0.432910  0  .  1
   O  O54  1  0.512194  0.785091  0.247810  0  .  1
   O  O55  1  0.272896  0.487806  0.247810  0  .  1
   O  O56  1  0.701841  0.972266  0.788709  0  .  1
   O  O57  1  0.825992  0.762008  0.932379  0  .  1
   O  O58  1  0.243877  0.948741  0.711062  0  .  1
   O  O59  1  0.668378  0.519661  0.436960  0  .  1
   O  O60  1  0.919551  0.752608  0.567091  0  .  1
   O  O61  1  0.936015  0.174008  0.932379  0  .  1
   O  O62  1  0.851283  0.331622  0.436960  0  .  1
   O  O63  1  0.785091  0.272896  0.752190  0  .  1
   O  O64  1  0.312312  0.833988  0.935458  0  .  1
   O  O65  1  0.270425  0.298159  0.788709  0  .  1
   O  O66  1  0.704864  0.756123  0.711062  0  .  1
   O  O67  1  0.487806  0.214909  0.752190  0  .  1
   O  O68  1  0.727104  0.512194  0.752190  0  .  1
   O  O69  1  0.166012  0.478324  0.935458  0  .  1
   O  O70  1  0.762008  0.936015  0.067621  0  .  1
   O  O71  1  0.247392  0.166942  0.567091  0  .  1
   O  O72  1  0.295136  0.243877  0.288938  0  .  1
 
