#\#CIF1.1
##########################################################################
#               Crystallographic Information Format file 
#               Produced by PyCifRW module
# 
#  This is a CIF file.  CIF has been adopted by the International
#  Union of Crystallography as the standard for data archiving and 
#  transmission.
#
#  For information on this file format, follow the CIF links at
#  http://www.iucr.org
##########################################################################

data_Na2ZnS2
_symmetry_space_group_name_H-M          'P 1'
_cell_length_a                          5.97689577342
_cell_length_b                          6.46268289013
_cell_length_c                          7.11687097975
_cell_angle_alpha                       117.003159198
_cell_angle_beta                        114.828928567
_cell_angle_gamma                       89.9999999723
_chemical_name_systematic               'Generated by pymatgen'
_symmetry_Int_Tables_number             1
_chemical_formula_structural            Na2ZnS2
_chemical_formula_sum                   'Na4 Zn2 S4'
_cell_volume                            216.025140848
_cell_formula_units_Z                   2
loop_
  _symmetry_equiv_pos_site_id
  _symmetry_equiv_pos_as_xyz
   1  'x, y, z'
 
loop_
  _atom_site_type_symbol
  _atom_site_label
  _atom_site_symmetry_multiplicity
  _atom_site_fract_x
  _atom_site_fract_y
  _atom_site_fract_z
  _atom_site_attached_hydrogens
  _atom_site_B_iso_or_equiv
  _atom_site_occupancy
   Na  Na1  1  0.142383  0.491411  0.284766  0  .  1
   Na  Na2  1  0.857617  0.508589  0.715234  0  .  1
   Na  Na3  1  0.357617  0.206645  0.715234  0  .  1
   Na  Na4  1  0.642383  0.793355  0.284766  0  .  1
   S  S5  1  0.610906  0.324403  0.221813  0  .  1
   S  S6  1  0.389094  0.675597  0.778187  0  .  1
   S  S7  1  0.889094  0.102590  0.778187  0  .  1
   S  S8  1  0.110906  0.897410  0.221813  0  .  1
   Zn  Zn9  1  0.250000  0.000000  0.000000  0  .  1
   Zn  Zn10  1  0.750000  0.000000  0.000000  0  .  1
 
