#\#CIF1.1
##########################################################################
#               Crystallographic Information Format file 
#               Produced by PyCifRW module
# 
#  This is a CIF file.  CIF has been adopted by the International
#  Union of Crystallography as the standard for data archiving and 
#  transmission.
#
#  For information on this file format, follow the CIF links at
#  http://www.iucr.org
##########################################################################

data_Na2ZnO2
_symmetry_space_group_name_H-M          'P 1'
_cell_length_a                          5.7940213436
_cell_length_b                          6.0412491
_cell_length_c                          7.82476360881
_cell_angle_alpha                       90.0
_cell_angle_beta                        94.873612989
_cell_angle_gamma                       90.0
_chemical_name_systematic               'Generated by pymatgen'
_symmetry_Int_Tables_number             1
_chemical_formula_structural            Na2ZnO2
_chemical_formula_sum                   'Na8 Zn4 O8'
_cell_volume                            272.900942502
_cell_formula_units_Z                   4
loop_
  _symmetry_equiv_pos_site_id
  _symmetry_equiv_pos_as_xyz
   1  'x, y, z'
 
loop_
  _atom_site_type_symbol
  _atom_site_label
  _atom_site_symmetry_multiplicity
  _atom_site_fract_x
  _atom_site_fract_y
  _atom_site_fract_z
  _atom_site_attached_hydrogens
  _atom_site_B_iso_or_equiv
  _atom_site_occupancy
   O  O1  1  0.748595  0.035059  0.851543  0  .  1
   O  O2  1  0.751405  0.535059  0.148457  0  .  1
   O  O3  1  0.251405  0.964941  0.148457  0  .  1
   O  O4  1  0.248595  0.464941  0.851543  0  .  1
   O  O5  1  0.302299  0.877705  0.562760  0  .  1
   O  O6  1  0.197701  0.377705  0.437240  0  .  1
   O  O7  1  0.697701  0.122295  0.437240  0  .  1
   O  O8  1  0.802299  0.622295  0.562760  0  .  1
   Na  Na9  1  0.991244  0.742063  0.972240  0  .  1
   Na  Na10  1  0.508756  0.242063  0.027760  0  .  1
   Na  Na11  1  0.008756  0.257937  0.027760  0  .  1
   Na  Na12  1  0.491244  0.757937  0.972240  0  .  1
   Na  Na13  1  0.571297  0.355125  0.675669  0  .  1
   Na  Na14  1  0.928703  0.855125  0.324331  0  .  1
   Na  Na15  1  0.428703  0.644875  0.324331  0  .  1
   Na  Na16  1  0.071297  0.144875  0.675669  0  .  1
   Zn  Zn17  1  0.144669  0.606387  0.635524  0  .  1
   Zn  Zn18  1  0.355331  0.106387  0.364476  0  .  1
   Zn  Zn19  1  0.855331  0.393613  0.364476  0  .  1
   Zn  Zn20  1  0.644669  0.893613  0.635524  0  .  1
 
