#\#CIF1.1
##########################################################################
#               Crystallographic Information Format file 
#               Produced by PyCifRW module
# 
#  This is a CIF file.  CIF has been adopted by the International
#  Union of Crystallography as the standard for data archiving and 
#  transmission.
#
#  For information on this file format, follow the CIF links at
#  http://www.iucr.org
##########################################################################

data_Na3(TiS2)10
_symmetry_space_group_name_H-M          'P 1'
_cell_length_a                          13.1276901238
_cell_length_b                          65.6277054245
_cell_length_c                          26.0270172165
_cell_angle_alpha                       7.49136195369
_cell_angle_beta                        13.0335369756
_cell_angle_gamma                       15.0007043442
_chemical_name_systematic               'Generated by pymatgen'
_symmetry_Int_Tables_number             1
_chemical_formula_structural            Na3(TiS2)10
_chemical_formula_sum                   'Na3 Ti10 S20'
_cell_volume                            659.30691825
_cell_formula_units_Z                   1
loop_
  _symmetry_equiv_pos_site_id
  _symmetry_equiv_pos_as_xyz
   1  'x, y, z'
 
loop_
  _atom_site_type_symbol
  _atom_site_label
  _atom_site_symmetry_multiplicity
  _atom_site_fract_x
  _atom_site_fract_y
  _atom_site_fract_z
  _atom_site_attached_hydrogens
  _atom_site_B_iso_or_equiv
  _atom_site_occupancy
   Na  Na1  1  0.340930  0.200000  0.327328  0  .  1
   Na  Na2  1  0.661838  0.592802  0.689170  0  .  1
   Na  Na3  1  0.661838  0.807198  0.653181  0  .  1
   Ti  Ti4  1  0.423501  0.002924  0.419316  0  .  1
   Ti  Ti5  1  0.432717  0.200000  0.422365  0  .  1
   Ti  Ti6  1  0.569984  0.200000  0.576648  0  .  1
   Ti  Ti7  1  0.423501  0.397076  0.433937  0  .  1
   Ti  Ti8  1  0.577038  0.398464  0.577007  0  .  1
   Ti  Ti9  1  0.423922  0.600061  0.426924  0  .  1
   Ti  Ti10  1  0.574436  0.601042  0.571361  0  .  1
   Ti  Ti11  1  0.423922  0.799939  0.427228  0  .  1
   Ti  Ti12  1  0.574436  0.798958  0.576571  0  .  1
   Ti  Ti13  1  0.577038  0.001536  0.569326  0  .  1
   S  S14  1  0.057747  0.001065  0.050285  0  .  1
   S  S15  1  0.205482  0.999719  0.205763  0  .  1
   S  S16  1  0.057917  0.200000  0.052888  0  .  1
   S  S17  1  0.203561  0.200000  0.206225  0  .  1
   S  S18  1  0.057747  0.398935  0.055608  0  .  1
   S  S19  1  0.205482  0.400281  0.204360  0  .  1
   S  S20  1  0.051222  0.599083  0.058523  0  .  1
   S  S21  1  0.795126  0.200000  0.794778  0  .  1
   S  S22  1  0.206221  0.599869  0.205128  0  .  1
   S  S23  1  0.950300  0.200000  0.942701  0  .  1
   S  S24  1  0.051222  0.800917  0.053939  0  .  1
   S  S25  1  0.794985  0.399986  0.795035  0  .  1
   S  S26  1  0.206221  0.800131  0.204472  0  .  1
   S  S27  1  0.944405  0.401034  0.943494  0  .  1
   S  S28  1  0.794625  0.599494  0.796026  0  .  1
   S  S29  1  0.944311  0.599996  0.946655  0  .  1
   S  S30  1  0.794625  0.800506  0.793496  0  .  1
   S  S31  1  0.944311  0.800004  0.946634  0  .  1
   S  S32  1  0.794985  0.000014  0.794964  0  .  1
   S  S33  1  0.944405  0.998966  0.948665  0  .  1
 
