#\#CIF1.1
##########################################################################
#               Crystallographic Information Format file 
#               Produced by PyCifRW module
# 
#  This is a CIF file.  CIF has been adopted by the International
#  Union of Crystallography as the standard for data archiving and 
#  transmission.
#
#  For information on this file format, follow the CIF links at
#  http://www.iucr.org
##########################################################################

data_Na3(CoO2)2
_symmetry_space_group_name_H-M          'P 1'
_cell_length_a                          4.96639762798
_cell_length_b                          4.96639762798
_cell_length_c                          10.53434944
_cell_angle_alpha                       90.0
_cell_angle_beta                        90.0
_cell_angle_gamma                       70.6705657482
_chemical_name_systematic               'Generated by pymatgen'
_symmetry_Int_Tables_number             1
_chemical_formula_structural            Na3(CoO2)2
_chemical_formula_sum                   'Na6 Co4 O8'
_cell_volume                            245.184443421
_cell_formula_units_Z                   2
loop_
  _symmetry_equiv_pos_site_id
  _symmetry_equiv_pos_as_xyz
   1  'x, y, z'
 
loop_
  _atom_site_type_symbol
  _atom_site_label
  _atom_site_symmetry_multiplicity
  _atom_site_fract_x
  _atom_site_fract_y
  _atom_site_fract_z
  _atom_site_attached_hydrogens
  _atom_site_B_iso_or_equiv
  _atom_site_occupancy
   Na  Na1  1  0.353858  0.353858  0.061548  0  .  1
   Na  Na2  1  0.353858  0.353858  0.438452  0  .  1
   Na  Na3  1  0.646142  0.646142  0.561548  0  .  1
   Na  Na4  1  0.683729  0.683729  0.250000  0  .  1
   Na  Na5  1  0.316271  0.316271  0.750000  0  .  1
   Na  Na6  1  0.646142  0.646142  0.938452  0  .  1
   Co  Co7  1  0.000000  0.000000  0.000000  0  .  1
   Co  Co8  1  0.067762  0.067762  0.250000  0  .  1
   Co  Co9  1  0.000000  0.000000  0.500000  0  .  1
   Co  Co10  1  0.932238  0.932238  0.750000  0  .  1
   O  O11  1  0.302526  0.859943  0.114133  0  .  1
   O  O12  1  0.302526  0.859943  0.385867  0  .  1
   O  O13  1  0.140057  0.697474  0.885867  0  .  1
   O  O14  1  0.140057  0.697474  0.614133  0  .  1
   O  O15  1  0.859943  0.302526  0.385867  0  .  1
   O  O16  1  0.859943  0.302526  0.114133  0  .  1
   O  O17  1  0.697474  0.140057  0.614133  0  .  1
   O  O18  1  0.697474  0.140057  0.885867  0  .  1
 
