#\#CIF1.1
##########################################################################
#               Crystallographic Information Format file 
#               Produced by PyCifRW module
# 
#  This is a CIF file.  CIF has been adopted by the International
#  Union of Crystallography as the standard for data archiving and 
#  transmission.
#
#  For information on this file format, follow the CIF links at
#  http://www.iucr.org
##########################################################################

data_Na3(CuS)4
_symmetry_space_group_name_H-M          'P 1'
_cell_length_a                          3.74059638
_cell_length_b                          7.2442209
_cell_length_c                          14.55784101
_cell_angle_alpha                       90.0
_cell_angle_beta                        90.0
_cell_angle_gamma                       90.0
_chemical_name_systematic               'Generated by pymatgen'
_symmetry_Int_Tables_number             1
_chemical_formula_structural            Na3(CuS)4
_chemical_formula_sum                   'Na6 Cu8 S8'
_cell_volume                            394.484102591
_cell_formula_units_Z                   2
loop_
  _symmetry_equiv_pos_site_id
  _symmetry_equiv_pos_as_xyz
   1  'x, y, z'
 
loop_
  _atom_site_type_symbol
  _atom_site_label
  _atom_site_symmetry_multiplicity
  _atom_site_fract_x
  _atom_site_fract_y
  _atom_site_fract_z
  _atom_site_attached_hydrogens
  _atom_site_B_iso_or_equiv
  _atom_site_occupancy
   Na  Na1  1  0.500000  0.000000  0.000000  0  .  1
   Na  Na2  1  0.500000  0.500000  0.500000  0  .  1
   Na  Na3  1  0.000000  0.020248  0.235963  0  .  1
   Na  Na4  1  0.000000  0.979752  0.764037  0  .  1
   Na  Na5  1  0.000000  0.520248  0.264037  0  .  1
   Na  Na6  1  0.000000  0.479752  0.735963  0  .  1
   S  S7  1  0.000000  0.754640  0.091385  0  .  1
   S  S8  1  0.000000  0.245361  0.908615  0  .  1
   S  S9  1  0.500000  0.714464  0.848884  0  .  1
   S  S10  1  0.500000  0.285536  0.151116  0  .  1
   S  S11  1  0.500000  0.214464  0.651116  0  .  1
   S  S12  1  0.500000  0.785536  0.348884  0  .  1
   S  S13  1  0.000000  0.745360  0.591385  0  .  1
   S  S14  1  0.000000  0.254640  0.408615  0  .  1
   Cu  Cu15  1  0.000000  0.832106  0.438966  0  .  1
   Cu  Cu16  1  0.000000  0.167894  0.561034  0  .  1
   Cu  Cu17  1  0.000000  0.332106  0.061034  0  .  1
   Cu  Cu18  1  0.000000  0.667894  0.938966  0  .  1
   Cu  Cu19  1  0.500000  0.578496  0.088861  0  .  1
   Cu  Cu20  1  0.500000  0.421504  0.911139  0  .  1
   Cu  Cu21  1  0.500000  0.078496  0.411139  0  .  1
   Cu  Cu22  1  0.500000  0.921504  0.588861  0  .  1
 
