#\#CIF1.1
##########################################################################
#               Crystallographic Information Format file 
#               Produced by PyCifRW module
# 
#  This is a CIF file.  CIF has been adopted by the International
#  Union of Crystallography as the standard for data archiving and 
#  transmission.
#
#  For information on this file format, follow the CIF links at
#  http://www.iucr.org
##########################################################################

data_Na3(CuO2)2
_symmetry_space_group_name_H-M          'P 1'
_cell_length_a                          5.624377842
_cell_length_b                          5.624377842
_cell_length_c                          8.16685787091
_cell_angle_alpha                       66.7076413691
_cell_angle_beta                        113.292358631
_cell_angle_gamma                       150.229161712
_chemical_name_systematic               'Generated by pymatgen'
_symmetry_Int_Tables_number             1
_chemical_formula_structural            Na3(CuO2)2
_chemical_formula_sum                   'Na3 Cu2 O4'
_cell_volume                            117.049047875
_cell_formula_units_Z                   1
loop_
  _symmetry_equiv_pos_site_id
  _symmetry_equiv_pos_as_xyz
   1  'x, y, z'
 
loop_
  _atom_site_type_symbol
  _atom_site_label
  _atom_site_symmetry_multiplicity
  _atom_site_fract_x
  _atom_site_fract_y
  _atom_site_fract_z
  _atom_site_attached_hydrogens
  _atom_site_B_iso_or_equiv
  _atom_site_occupancy
   Na  Na1  1  0.377899  0.622101  0.116492  0  .  1
   Na  Na2  1  0.000000  0.000000  0.500000  0  .  1
   Na  Na3  1  0.622101  0.377899  0.883508  0  .  1
   Cu  Cu4  1  0.171313  0.828687  0.279383  0  .  1
   Cu  Cu5  1  0.828687  0.171313  0.720617  0  .  1
   O  O6  1  0.251887  0.748113  0.803649  0  .  1
   O  O7  1  0.415107  0.584893  0.654859  0  .  1
   O  O8  1  0.584893  0.415107  0.345141  0  .  1
   O  O9  1  0.748113  0.251887  0.196351  0  .  1
 
