#\#CIF1.1
##########################################################################
#               Crystallographic Information Format file 
#               Produced by PyCifRW module
# 
#  This is a CIF file.  CIF has been adopted by the International
#  Union of Crystallography as the standard for data archiving and 
#  transmission.
#
#  For information on this file format, follow the CIF links at
#  http://www.iucr.org
##########################################################################

data_Na3(CoO2)4
_symmetry_space_group_name_H-M          'P 1'
_cell_length_a                          2.87968341
_cell_length_b                          9.81556650742
_cell_length_c                          10.8867836777
_cell_angle_alpha                       90.0481435756
_cell_angle_beta                        90.0000073181
_cell_angle_gamma                       90.000005104
_chemical_name_systematic               'Generated by pymatgen'
_symmetry_Int_Tables_number             1
_chemical_formula_structural            Na3(CoO2)4
_chemical_formula_sum                   'Na6 Co8 O16'
_cell_volume                            307.722714387
_cell_formula_units_Z                   2
loop_
  _symmetry_equiv_pos_site_id
  _symmetry_equiv_pos_as_xyz
   1  'x, y, z'
 
loop_
  _atom_site_type_symbol
  _atom_site_label
  _atom_site_symmetry_multiplicity
  _atom_site_fract_x
  _atom_site_fract_y
  _atom_site_fract_z
  _atom_site_attached_hydrogens
  _atom_site_B_iso_or_equiv
  _atom_site_occupancy
   Na  Na1  1  0.000003  0.518986  0.749546  0  .  1
   Na  Na2  1  0.999992  0.179549  0.750195  0  .  1
   Na  Na3  1  0.000001  0.866799  0.250080  0  .  1
   Na  Na4  1  0.499995  0.230990  0.249472  0  .  1
   Na  Na5  1  0.499994  0.883214  0.750052  0  .  1
   Na  Na6  1  0.500001  0.570435  0.250275  0  .  1
   Co  Co7  1  0.999989  0.000847  0.997510  0  .  1
   Co  Co8  1  0.000005  0.000559  0.502490  0  .  1
   Co  Co9  1  0.999987  0.498684  0.004703  0  .  1
   Co  Co10  1  0.000005  0.499042  0.495346  0  .  1
   Co  Co11  1  0.499987  0.250979  0.995331  0  .  1
   Co  Co12  1  0.500005  0.251317  0.504642  0  .  1
   Co  Co13  1  0.500005  0.749194  0.497538  0  .  1
   Co  Co14  1  0.499989  0.749404  0.002508  0  .  1
   O  O15  1  0.999987  0.167299  0.085368  0  .  1
   O  O16  1  0.999990  0.667029  0.097096  0  .  1
   O  O17  1  0.000005  0.169094  0.414735  0  .  1
   O  O18  1  0.999986  0.337841  0.907730  0  .  1
   O  O19  1  0.000005  0.669105  0.402682  0  .  1
   O  O20  1  0.999990  0.831545  0.911110  0  .  1
   O  O21  1  0.000006  0.335945  0.592418  0  .  1
   O  O22  1  0.000004  0.829437  0.589014  0  .  1
   O  O23  1  0.499987  0.414220  0.092425  0  .  1
   O  O24  1  0.499990  0.920683  0.089006  0  .  1
   O  O25  1  0.499988  0.080783  0.902645  0  .  1
   O  O26  1  0.499988  0.580740  0.914803  0  .  1
   O  O27  1  0.500004  0.918219  0.411156  0  .  1
   O  O28  1  0.500004  0.083166  0.597017  0  .  1
   O  O29  1  0.500005  0.412059  0.407702  0  .  1
   O  O30  1  0.500006  0.582885  0.585405  0  .  1
 
