#\#CIF1.1
##########################################################################
#               Crystallographic Information Format file 
#               Produced by PyCifRW module
# 
#  This is a CIF file.  CIF has been adopted by the International
#  Union of Crystallography as the standard for data archiving and 
#  transmission.
#
#  For information on this file format, follow the CIF links at
#  http://www.iucr.org
##########################################################################

data_Na3Cr11Se20
_symmetry_space_group_name_H-M          'P 1'
_cell_length_a                          12.9614369039
_cell_length_b                          12.9614369021
_cell_length_c                          64.7077760973
_cell_angle_alpha                       16.2411837241
_cell_angle_beta                        16.2411837492
_cell_angle_gamma                       16.3270975361
_chemical_name_systematic               'Generated by pymatgen'
_symmetry_Int_Tables_number             1
_chemical_formula_structural            Na3Cr11Se20
_chemical_formula_sum                   'Na3 Cr11 Se20'
_cell_volume                            743.890763667
_cell_formula_units_Z                   1
loop_
  _symmetry_equiv_pos_site_id
  _symmetry_equiv_pos_as_xyz
   1  'x, y, z'
 
loop_
  _atom_site_type_symbol
  _atom_site_label
  _atom_site_symmetry_multiplicity
  _atom_site_fract_x
  _atom_site_fract_y
  _atom_site_fract_z
  _atom_site_attached_hydrogens
  _atom_site_B_iso_or_equiv
  _atom_site_occupancy
   Na  Na1  1  0.685401  0.685401  0.524936  0  .  1
   Na  Na2  1  0.656959  0.656959  0.735000  0  .  1
   Na  Na3  1  0.649109  0.649109  0.939453  0  .  1
   Cr  Cr4  1  0.418835  0.418835  0.087723  0  .  1
   Cr  Cr5  1  0.585889  0.585889  0.110532  0  .  1
   Cr  Cr6  1  0.442649  0.442649  0.275155  0  .  1
   Cr  Cr7  1  0.496000  0.496000  0.301632  0  .  1
   Cr  Cr8  1  0.571526  0.571526  0.318740  0  .  1
   Cr  Cr9  1  0.419392  0.419392  0.488005  0  .  1
   Cr  Cr10  1  0.577686  0.577686  0.513688  0  .  1
   Cr  Cr11  1  0.430110  0.430110  0.681692  0  .  1
   Cr  Cr12  1  0.507844  0.507844  0.700240  0  .  1
   Cr  Cr13  1  0.410631  0.410631  0.891864  0  .  1
   Cr  Cr14  1  0.588114  0.588114  0.908485  0  .  1
   Se  Se15  1  0.051027  0.051027  0.013177  0  .  1
   Se  Se16  1  0.211129  0.211129  0.038875  0  .  1
   Se  Se17  1  0.059702  0.059702  0.207895  0  .  1
   Se  Se18  1  0.202375  0.202375  0.241288  0  .  1
   Se  Se19  1  0.059573  0.059573  0.410784  0  .  1
   Se  Se20  1  0.795731  0.795731  0.159192  0  .  1
   Se  Se21  1  0.204139  0.204139  0.441118  0  .  1
   Se  Se22  1  0.941006  0.941006  0.189600  0  .  1
   Se  Se23  1  0.059379  0.059379  0.608675  0  .  1
   Se  Se24  1  0.798959  0.798959  0.357759  0  .  1
   Se  Se25  1  0.187276  0.187276  0.648964  0  .  1
   Se  Se26  1  0.945016  0.945016  0.388926  0  .  1
   Se  Se27  1  0.052343  0.052343  0.812605  0  .  1
   Se  Se28  1  0.785896  0.785896  0.563170  0  .  1
   Se  Se29  1  0.191229  0.191229  0.844894  0  .  1
   Se  Se30  1  0.957728  0.957728  0.583191  0  .  1
   Se  Se31  1  0.800227  0.800227  0.757429  0  .  1
   Se  Se32  1  0.931959  0.931959  0.792047  0  .  1
   Se  Se33  1  0.794711  0.794711  0.959531  0  .  1
   Se  Se34  1  0.946348  0.946348  0.986913  0  .  1
 
