#\#CIF1.1
##########################################################################
#               Crystallographic Information Format file 
#               Produced by PyCifRW module
# 
#  This is a CIF file.  CIF has been adopted by the International
#  Union of Crystallography as the standard for data archiving and 
#  transmission.
#
#  For information on this file format, follow the CIF links at
#  http://www.iucr.org
##########################################################################

data_Na3FeO4
_symmetry_space_group_name_H-M          'P 1'
_cell_length_a                          7.43863964
_cell_length_b                          6.01545428
_cell_length_c                          5.48751703
_cell_angle_alpha                       90.0
_cell_angle_beta                        90.0
_cell_angle_gamma                       90.0
_chemical_name_systematic               'Generated by pymatgen'
_symmetry_Int_Tables_number             1
_chemical_formula_structural            Na3FeO4
_chemical_formula_sum                   'Na6 Fe2 O8'
_cell_volume                            245.548808709
_cell_formula_units_Z                   2
loop_
  _symmetry_equiv_pos_site_id
  _symmetry_equiv_pos_as_xyz
   1  'x, y, z'
 
loop_
  _atom_site_type_symbol
  _atom_site_label
  _atom_site_symmetry_multiplicity
  _atom_site_fract_x
  _atom_site_fract_y
  _atom_site_fract_z
  _atom_site_attached_hydrogens
  _atom_site_B_iso_or_equiv
  _atom_site_occupancy
   Na  Na1  1  0.000000  0.157231  0.480962  0  .  1
   Na  Na2  1  0.244439  0.321027  0.985829  0  .  1
   Na  Na3  1  0.255560  0.678973  0.485829  0  .  1
   Na  Na4  1  0.500000  0.842769  0.980962  0  .  1
   Na  Na5  1  0.744440  0.678973  0.485829  0  .  1
   Na  Na6  1  0.755560  0.321027  0.985829  0  .  1
   Fe  Fe7  1  0.000000  0.817813  0.997579  0  .  1
   Fe  Fe8  1  0.500000  0.182187  0.497579  0  .  1
   O  O9  1  0.000000  0.093302  0.903700  0  .  1
   O  O10  1  0.000000  0.808571  0.310961  0  .  1
   O  O11  1  0.208631  0.699784  0.909936  0  .  1
   O  O12  1  0.291369  0.300216  0.409936  0  .  1
   O  O13  1  0.500000  0.191429  0.810961  0  .  1
   O  O14  1  0.500000  0.906698  0.403700  0  .  1
   O  O15  1  0.708631  0.300216  0.409936  0  .  1
   O  O16  1  0.791369  0.699784  0.909936  0  .  1
 
