#\#CIF1.1
##########################################################################
#               Crystallographic Information Format file 
#               Produced by PyCifRW module
# 
#  This is a CIF file.  CIF has been adopted by the International
#  Union of Crystallography as the standard for data archiving and 
#  transmission.
#
#  For information on this file format, follow the CIF links at
#  http://www.iucr.org
##########################################################################

data_Na3Fe5O9
_symmetry_space_group_name_H-M          'P 1'
_cell_length_a                          5.41239584767
_cell_length_b                          9.1832588307
_cell_length_c                          9.18325904697
_cell_angle_alpha                       84.0039209046
_cell_angle_beta                        90.4574972892
_cell_angle_gamma                       90.4575043704
_chemical_name_systematic               'Generated by pymatgen'
_symmetry_Int_Tables_number             1
_chemical_formula_structural            Na3Fe5O9
_chemical_formula_sum                   'Na6 Fe10 O18'
_cell_volume                            453.916126382
_cell_formula_units_Z                   2
loop_
  _symmetry_equiv_pos_site_id
  _symmetry_equiv_pos_as_xyz
   1  'x, y, z'
 
loop_
  _atom_site_type_symbol
  _atom_site_label
  _atom_site_symmetry_multiplicity
  _atom_site_fract_x
  _atom_site_fract_y
  _atom_site_fract_z
  _atom_site_attached_hydrogens
  _atom_site_B_iso_or_equiv
  _atom_site_occupancy
   Na  Na1  1  0.736031  0.681246  0.837219  0  .  1
   Na  Na2  1  0.763969  0.162781  0.318754  0  .  1
   Na  Na3  1  0.263969  0.318754  0.162781  0  .  1
   Na  Na4  1  0.236031  0.837219  0.681246  0  .  1
   Na  Na5  1  0.750000  0.408841  0.591159  0  .  1
   Na  Na6  1  0.250000  0.591159  0.408841  0  .  1
   Fe  Fe7  1  0.715004  0.565338  0.202728  0  .  1
   Fe  Fe8  1  0.784996  0.797272  0.434662  0  .  1
   Fe  Fe9  1  0.284996  0.434662  0.797272  0  .  1
   Fe  Fe10  1  0.215004  0.202728  0.565338  0  .  1
   Fe  Fe11  1  0.782120  0.300153  0.979586  0  .  1
   Fe  Fe12  1  0.717880  0.020414  0.699847  0  .  1
   Fe  Fe13  1  0.217880  0.699847  0.020414  0  .  1
   Fe  Fe14  1  0.282120  0.979586  0.300153  0  .  1
   Fe  Fe15  1  0.750000  0.936106  0.063894  0  .  1
   Fe  Fe16  1  0.250000  0.063894  0.936106  0  .  1
   O  O17  1  0.880628  0.723108  0.085057  0  .  1
   O  O18  1  0.619372  0.914943  0.276892  0  .  1
   O  O19  1  0.119372  0.276892  0.914943  0  .  1
   O  O20  1  0.380628  0.085057  0.723108  0  .  1
   O  O21  1  0.632259  0.432526  0.834682  0  .  1
   O  O22  1  0.867741  0.165318  0.567474  0  .  1
   O  O23  1  0.367741  0.567474  0.165318  0  .  1
   O  O24  1  0.132259  0.834682  0.432526  0  .  1
   O  O25  1  0.825129  0.377982  0.163881  0  .  1
   O  O26  1  0.674871  0.836119  0.622018  0  .  1
   O  O27  1  0.174871  0.622018  0.836119  0  .  1
   O  O28  1  0.325129  0.163881  0.377982  0  .  1
   O  O29  1  0.570868  0.133975  0.029481  0  .  1
   O  O30  1  0.929132  0.970519  0.866025  0  .  1
   O  O31  1  0.429132  0.866025  0.970519  0  .  1
   O  O32  1  0.070868  0.029481  0.133975  0  .  1
   O  O33  1  0.750000  0.595291  0.404709  0  .  1
   O  O34  1  0.250000  0.404709  0.595291  0  .  1
 
