#\#CIF1.1
##########################################################################
#               Crystallographic Information Format file 
#               Produced by PyCifRW module
# 
#  This is a CIF file.  CIF has been adopted by the International
#  Union of Crystallography as the standard for data archiving and 
#  transmission.
#
#  For information on this file format, follow the CIF links at
#  http://www.iucr.org
##########################################################################

data_Na3FeSe3
_symmetry_space_group_name_H-M          'P 1'
_cell_length_a                          7.23212886
_cell_length_b                          7.48128505264
_cell_length_c                          13.0263339082
_cell_angle_alpha                       91.3771724341
_cell_angle_beta                        90.0
_cell_angle_gamma                       90.0
_chemical_name_systematic               'Generated by pymatgen'
_symmetry_Int_Tables_number             1
_chemical_formula_structural            Na3FeSe3
_chemical_formula_sum                   'Na12 Fe4 Se12'
_cell_volume                            704.594255718
_cell_formula_units_Z                   4
loop_
  _symmetry_equiv_pos_site_id
  _symmetry_equiv_pos_as_xyz
   1  'x, y, z'
 
loop_
  _atom_site_type_symbol
  _atom_site_label
  _atom_site_symmetry_multiplicity
  _atom_site_fract_x
  _atom_site_fract_y
  _atom_site_fract_z
  _atom_site_attached_hydrogens
  _atom_site_B_iso_or_equiv
  _atom_site_occupancy
   Na  Na1  1  0.482835  0.217547  0.092995  0  .  1
   Na  Na2  1  0.982835  0.282453  0.407005  0  .  1
   Na  Na3  1  0.017165  0.717547  0.592995  0  .  1
   Na  Na4  1  0.517165  0.782453  0.907005  0  .  1
   Na  Na5  1  0.499888  0.272377  0.776423  0  .  1
   Na  Na6  1  0.999888  0.227623  0.723577  0  .  1
   Na  Na7  1  0.500112  0.727623  0.223577  0  .  1
   Na  Na8  1  0.983300  0.162464  0.113775  0  .  1
   Na  Na9  1  0.516700  0.662464  0.613775  0  .  1
   Na  Na10  1  0.016700  0.837536  0.886225  0  .  1
   Na  Na11  1  0.483300  0.337536  0.386225  0  .  1
   Na  Na12  1  0.000112  0.772377  0.276423  0  .  1
   Fe  Fe13  1  0.879855  0.426285  0.925885  0  .  1
   Fe  Fe14  1  0.120145  0.573715  0.074115  0  .  1
   Fe  Fe15  1  0.379855  0.073715  0.574115  0  .  1
   Fe  Fe16  1  0.620145  0.926285  0.425885  0  .  1
   Se  Se17  1  0.283532  0.926231  0.725468  0  .  1
   Se  Se18  1  0.211344  0.411339  0.923606  0  .  1
   Se  Se19  1  0.288656  0.911339  0.423606  0  .  1
   Se  Se20  1  0.788656  0.588661  0.076394  0  .  1
   Se  Se21  1  0.711344  0.088661  0.576394  0  .  1
   Se  Se22  1  0.783532  0.573769  0.774532  0  .  1
   Se  Se23  1  0.716468  0.073769  0.274531  0  .  1
   Se  Se24  1  0.216468  0.426231  0.225468  0  .  1
   Se  Se25  1  0.757678  0.131249  0.926975  0  .  1
   Se  Se26  1  0.257678  0.368751  0.573025  0  .  1
   Se  Se27  1  0.242322  0.868751  0.073025  0  .  1
   Se  Se28  1  0.742322  0.631249  0.426975  0  .  1
 
