#\#CIF1.1
##########################################################################
#               Crystallographic Information Format file 
#               Produced by PyCifRW module
# 
#  This is a CIF file.  CIF has been adopted by the International
#  Union of Crystallography as the standard for data archiving and 
#  transmission.
#
#  For information on this file format, follow the CIF links at
#  http://www.iucr.org
##########################################################################

data_Na3Mn20O40
_symmetry_space_group_name_H-M          'P 1'
_cell_length_a                          5.96712661725
_cell_length_b                          10.33178321
_cell_length_c                          13.3140773928
_cell_angle_alpha                       75.0934550835
_cell_angle_beta                        102.987536711
_cell_angle_gamma                       106.794748912
_chemical_name_systematic               'Generated by pymatgen'
_symmetry_Int_Tables_number             1
_chemical_formula_structural            Na3Mn20O40
_chemical_formula_sum                   'Na3 Mn20 O40'
_cell_volume                            749.266585841
_cell_formula_units_Z                   1
loop_
  _symmetry_equiv_pos_site_id
  _symmetry_equiv_pos_as_xyz
   1  'x, y, z'
 
loop_
  _atom_site_type_symbol
  _atom_site_label
  _atom_site_symmetry_multiplicity
  _atom_site_fract_x
  _atom_site_fract_y
  _atom_site_fract_z
  _atom_site_attached_hydrogens
  _atom_site_B_iso_or_equiv
  _atom_site_occupancy
   Na  Na1  1  0.002189  0.374403  0.125924  0  .  1
   Na  Na2  1  0.798543  0.775247  0.324235  0  .  1
   Na  Na3  1  0.198724  0.224190  0.675449  0  .  1
   Mn  Mn4  1  0.398268  0.196421  0.098722  0  .  1
   Mn  Mn5  1  0.500547  0.503390  0.996566  0  .  1
   Mn  Mn6  1  0.204913  0.100188  0.302301  0  .  1
   Mn  Mn7  1  0.898299  0.704239  0.096012  0  .  1
   Mn  Mn8  1  0.397735  0.703756  0.095388  0  .  1
   Mn  Mn9  1  0.693836  0.099791  0.302735  0  .  1
   Mn  Mn10  1  0.298396  0.903024  0.196079  0  .  1
   Mn  Mn11  1  0.097687  0.299721  0.400446  0  .  1
   Mn  Mn12  1  0.998934  0.999514  0.501186  0  .  1
   Mn  Mn13  1  0.199148  0.599440  0.299972  0  .  1
   Mn  Mn14  1  0.000591  0.501276  0.500155  0  .  1
   Mn  Mn15  1  0.501604  0.500843  0.499903  0  .  1
   Mn  Mn16  1  0.803359  0.404927  0.701203  0  .  1
   Mn  Mn17  1  0.699554  0.097309  0.803033  0  .  1
   Mn  Mn18  1  0.903183  0.700154  0.603350  0  .  1
   Mn  Mn19  1  0.602317  0.300717  0.900198  0  .  1
   Mn  Mn20  1  0.301074  0.896873  0.700222  0  .  1
   Mn  Mn21  1  0.101286  0.300334  0.899873  0  .  1
   Mn  Mn22  1  0.795485  0.896034  0.700680  0  .  1
   Mn  Mn23  1  0.598409  0.800772  0.899078  0  .  1
   O  O24  1  0.654543  0.345892  0.037698  0  .  1
   O  O25  1  0.231256  0.345614  0.037340  0  .  1
   O  O26  1  0.137782  0.053527  0.160077  0  .  1
   O  O27  1  0.574189  0.053087  0.160456  0  .  1
   O  O28  1  0.598646  0.569568  0.130981  0  .  1
   O  O29  1  0.486037  0.227423  0.246007  0  .  1
   O  O30  1  0.684978  0.828919  0.045275  0  .  1
   O  O31  1  0.112730  0.579590  0.150220  0  .  1
   O  O32  1  0.197763  0.836982  0.062315  0  .  1
   O  O33  1  0.997863  0.230545  0.271134  0  .  1
   O  O34  1  0.826666  0.147236  0.443575  0  .  1
   O  O35  1  0.029699  0.749193  0.235767  0  .  1
   O  O36  1  0.452989  0.748909  0.235237  0  .  1
   O  O37  1  0.259724  0.147897  0.443443  0  .  1
   O  O38  1  0.938503  0.455103  0.358324  0  .  1
   O  O39  1  0.370930  0.454077  0.357504  0  .  1
   O  O40  1  0.397339  0.964263  0.333179  0  .  1
   O  O41  1  0.199247  0.369962  0.530390  0  .  1
   O  O42  1  0.288025  0.628743  0.444883  0  .  1
   O  O43  1  0.083206  0.020400  0.647346  0  .  1
   O  O44  1  0.803050  0.632242  0.470459  0  .  1
   O  O45  1  0.714893  0.373727  0.555262  0  .  1
   O  O46  1  0.914172  0.976852  0.356086  0  .  1
   O  O47  1  0.600038  0.032467  0.667913  0  .  1
   O  O48  1  0.628155  0.546939  0.641915  0  .  1
   O  O49  1  0.063088  0.546520  0.641718  0  .  1
   O  O50  1  0.547549  0.255436  0.762682  0  .  1
   O  O51  1  0.739362  0.850155  0.560108  0  .  1
   O  O52  1  0.969526  0.254896  0.762641  0  .  1
   O  O53  1  0.171770  0.851549  0.559662  0  .  1
   O  O54  1  0.803043  0.168206  0.936025  0  .  1
   O  O55  1  0.890387  0.427986  0.849829  0  .  1
   O  O56  1  0.000701  0.764537  0.734661  0  .  1
   O  O57  1  0.511713  0.771647  0.753566  0  .  1
   O  O58  1  0.400228  0.432756  0.864324  0  .  1
   O  O59  1  0.313403  0.173084  0.950360  0  .  1
   O  O60  1  0.424820  0.945911  0.839935  0  .  1
   O  O61  1  0.858934  0.945540  0.840393  0  .  1
   O  O62  1  0.773653  0.655726  0.958090  0  .  1
   O  O63  1  0.337798  0.654928  0.957643  0  .  1
 
