#\#CIF1.1
##########################################################################
#               Crystallographic Information Format file 
#               Produced by PyCifRW module
# 
#  This is a CIF file.  CIF has been adopted by the International
#  Union of Crystallography as the standard for data archiving and 
#  transmission.
#
#  For information on this file format, follow the CIF links at
#  http://www.iucr.org
##########################################################################

data_Na3Mn5O12
_symmetry_space_group_name_H-M          'P 1'
_cell_length_a                          5.85713284226
_cell_length_b                          8.64518726509
_cell_length_c                          5.05813967415
_cell_angle_alpha                       89.9999989937
_cell_angle_beta                        71.7934656461
_cell_angle_gamma                       89.9999964032
_chemical_name_systematic               'Generated by pymatgen'
_symmetry_Int_Tables_number             1
_chemical_formula_structural            Na3Mn5O12
_chemical_formula_sum                   'Na3 Mn5 O12'
_cell_volume                            243.301528669
_cell_formula_units_Z                   1
loop_
  _symmetry_equiv_pos_site_id
  _symmetry_equiv_pos_as_xyz
   1  'x, y, z'
 
loop_
  _atom_site_type_symbol
  _atom_site_label
  _atom_site_symmetry_multiplicity
  _atom_site_fract_x
  _atom_site_fract_y
  _atom_site_fract_z
  _atom_site_attached_hydrogens
  _atom_site_B_iso_or_equiv
  _atom_site_occupancy
   Na  Na1  1  0.500000  0.139448  1.000000  0  .  1
   Na  Na2  1  0.500000  0.527219  0.000000  0  .  1
   Na  Na3  1  0.500000  0.333333  0.500000  0  .  1
   Mn  Mn4  1  1.000000  0.008041  0.000000  0  .  1
   Mn  Mn5  1  0.000000  0.658626  1.000000  0  .  1
   Mn  Mn6  1  0.000000  0.172486  0.500000  0  .  1
   Mn  Mn7  1  1.000000  0.494181  0.500000  0  .  1
   Mn  Mn8  1  0.000000  0.833333  0.500000  0  .  1
   O  O9  1  0.178500  0.001150  0.267407  0  .  1
   O  O10  1  0.201299  0.333333  0.298838  0  .  1
   O  O11  1  0.807959  0.150554  0.252021  0  .  1
   O  O12  1  0.178500  0.665517  0.267407  0  .  1
   O  O13  1  0.821499  0.001150  0.732593  0  .  1
   O  O14  1  0.807959  0.516113  0.252021  0  .  1
   O  O15  1  0.192041  0.150554  0.747979  0  .  1
   O  O16  1  0.828572  0.833333  0.230443  0  .  1
   O  O17  1  0.192041  0.516113  0.747979  0  .  1
   O  O18  1  0.798701  0.333333  0.701162  0  .  1
   O  O19  1  0.171428  0.833333  0.769557  0  .  1
   O  O20  1  0.821499  0.665517  0.732593  0  .  1
 
