#\#CIF1.1
##########################################################################
#               Crystallographic Information Format file 
#               Produced by PyCifRW module
# 
#  This is a CIF file.  CIF has been adopted by the International
#  Union of Crystallography as the standard for data archiving and 
#  transmission.
#
#  For information on this file format, follow the CIF links at
#  http://www.iucr.org
##########################################################################

data_Na3Ni2O5
_symmetry_space_group_name_H-M          'P 1'
_cell_length_a                          5.27970087427
_cell_length_b                          6.30534339908
_cell_length_c                          6.90540720548
_cell_angle_alpha                       107.610891445
_cell_angle_beta                        96.4822568962
_cell_angle_gamma                       107.235851396
_chemical_name_systematic               'Generated by pymatgen'
_symmetry_Int_Tables_number             1
_chemical_formula_structural            Na3Ni2O5
_chemical_formula_sum                   'Na6 Ni4 O10'
_cell_volume                            204.02430823
_cell_formula_units_Z                   2
loop_
  _symmetry_equiv_pos_site_id
  _symmetry_equiv_pos_as_xyz
   1  'x, y, z'
 
loop_
  _atom_site_type_symbol
  _atom_site_label
  _atom_site_symmetry_multiplicity
  _atom_site_fract_x
  _atom_site_fract_y
  _atom_site_fract_z
  _atom_site_attached_hydrogens
  _atom_site_B_iso_or_equiv
  _atom_site_occupancy
   Na  Na1  1  0.819928  0.111523  0.601468  0  .  1
   Na  Na2  1  0.580072  0.688477  0.198532  0  .  1
   Na  Na3  1  0.405303  0.302901  0.788698  0  .  1
   Na  Na4  1  0.200000  0.900000  0.400000  0  .  1
   Na  Na5  1  0.200000  0.400000  0.400000  0  .  1
   Na  Na6  1  0.994697  0.497099  0.011302  0  .  1
   Ni  Ni7  1  0.802422  0.604842  0.603942  0  .  1
   Ni  Ni8  1  0.597578  0.195158  0.196058  0  .  1
   Ni  Ni9  1  0.402439  0.805249  0.805579  0  .  1
   Ni  Ni10  1  0.997561  0.994751  0.994421  0  .  1
   O  O11  1  0.850892  0.521148  0.320213  0  .  1
   O  O12  1  0.870012  0.055800  0.251180  0  .  1
   O  O13  1  0.676058  0.119473  0.924469  0  .  1
   O  O14  1  0.723942  0.680527  0.875531  0  .  1
   O  O15  1  0.549108  0.278852  0.479787  0  .  1
   O  O16  1  0.529988  0.744200  0.548820  0  .  1
   O  O17  1  0.077075  0.915531  0.717666  0  .  1
   O  O18  1  0.098102  0.509935  0.705834  0  .  1
   O  O19  1  0.301898  0.290065  0.094166  0  .  1
   O  O20  1  0.322925  0.884469  0.082334  0  .  1
 
