#\#CIF1.1
##########################################################################
#               Crystallographic Information Format file 
#               Produced by PyCifRW module
# 
#  This is a CIF file.  CIF has been adopted by the International
#  Union of Crystallography as the standard for data archiving and 
#  transmission.
#
#  For information on this file format, follow the CIF links at
#  http://www.iucr.org
##########################################################################

data_Na3Ni7O12
_symmetry_space_group_name_H-M          'P 1'
_cell_length_a                          5.41486992878
_cell_length_b                          5.82384267457
_cell_length_c                          7.69484213698
_cell_angle_alpha                       99.5798402231
_cell_angle_beta                        84.2041942885
_cell_angle_gamma                       74.0170501631
_chemical_name_systematic               'Generated by pymatgen'
_symmetry_Int_Tables_number             1
_chemical_formula_structural            Na3Ni7O12
_chemical_formula_sum                   'Na3 Ni7 O12'
_cell_volume                            227.250729639
_cell_formula_units_Z                   1
loop_
  _symmetry_equiv_pos_site_id
  _symmetry_equiv_pos_as_xyz
   1  'x, y, z'
 
loop_
  _atom_site_type_symbol
  _atom_site_label
  _atom_site_symmetry_multiplicity
  _atom_site_fract_x
  _atom_site_fract_y
  _atom_site_fract_z
  _atom_site_attached_hydrogens
  _atom_site_B_iso_or_equiv
  _atom_site_occupancy
   Na  Na1  1  0.495160  0.420621  0.165370  0  .  1
   Na  Na2  1  0.500712  0.916995  0.171017  0  .  1
   Na  Na3  1  0.503541  0.727768  0.516551  0  .  1
   Ni  Ni4  1  0.011829  0.997449  0.993822  0  .  1
   Ni  Ni5  1  0.998245  0.503042  0.996446  0  .  1
   Ni  Ni6  1  0.998949  0.331127  0.337921  0  .  1
   Ni  Ni7  1  0.992953  0.168452  0.670275  0  .  1
   Ni  Ni8  1  0.003577  0.665702  0.668598  0  .  1
   Ni  Ni9  1  0.991027  0.838377  0.333238  0  .  1
   Ni  Ni10  1  0.498102  0.095347  0.823169  0  .  1
   O  O11  1  0.222410  0.198315  0.063114  0  .  1
   O  O12  1  0.180197  0.053642  0.434215  0  .  1
   O  O13  1  0.204130  0.735225  0.080721  0  .  1
   O  O14  1  0.182824  0.575265  0.427434  0  .  1
   O  O15  1  0.199790  0.365103  0.750584  0  .  1
   O  O16  1  0.207635  0.914395  0.763343  0  .  1
   O  O17  1  0.816530  0.099295  0.225105  0  .  1
   O  O18  1  0.802817  0.430588  0.587475  0  .  1
   O  O19  1  0.806391  0.609928  0.248076  0  .  1
   O  O20  1  0.794230  0.255360  0.901833  0  .  1
   O  O21  1  0.785733  0.961088  0.602643  0  .  1
   O  O22  1  0.803219  0.803585  0.905715  0  .  1
 
