#\#CIF1.1
##########################################################################
#               Crystallographic Information Format file 
#               Produced by PyCifRW module
# 
#  This is a CIF file.  CIF has been adopted by the International
#  Union of Crystallography as the standard for data archiving and 
#  transmission.
#
#  For information on this file format, follow the CIF links at
#  http://www.iucr.org
##########################################################################

data_Na3NiO2
_symmetry_space_group_name_H-M          'P 1'
_cell_length_a                          6.0824353
_cell_length_b                          6.63078308204
_cell_length_c                          5.31300805
_cell_angle_alpha                       66.3823001478
_cell_angle_beta                        90.0
_cell_angle_gamma                       62.6998888207
_chemical_name_systematic               'Generated by pymatgen'
_symmetry_Int_Tables_number             1
_chemical_formula_structural            Na3NiO2
_chemical_formula_sum                   'Na6 Ni2 O4'
_cell_volume                            169.962848287
_cell_formula_units_Z                   2
loop_
  _symmetry_equiv_pos_site_id
  _symmetry_equiv_pos_as_xyz
   1  'x, y, z'
 
loop_
  _atom_site_type_symbol
  _atom_site_label
  _atom_site_symmetry_multiplicity
  _atom_site_fract_x
  _atom_site_fract_y
  _atom_site_fract_z
  _atom_site_attached_hydrogens
  _atom_site_B_iso_or_equiv
  _atom_site_occupancy
   Na  Na1  1  0.487586  0.524829  0.237586  0  .  1
   Na  Na2  1  0.750000  0.000000  0.500000  0  .  1
   Na  Na3  1  0.250000  0.000000  0.500000  0  .  1
   Na  Na4  1  0.987586  0.524829  0.237586  0  .  1
   Na  Na5  1  0.512414  0.475171  0.762414  0  .  1
   Na  Na6  1  0.012414  0.475171  0.762414  0  .  1
   Ni  Ni7  1  0.000000  0.000000  0.000000  0  .  1
   Ni  Ni8  1  0.500000  0.000000  0.000000  0  .  1
   O  O9  1  0.374697  0.250607  0.125750  0  .  1
   O  O10  1  0.874697  0.250607  0.623644  0  .  1
   O  O11  1  0.125303  0.749393  0.376356  0  .  1
   O  O12  1  0.625303  0.749393  0.874250  0  .  1
 
