#\#CIF1.1
##########################################################################
#               Crystallographic Information Format file 
#               Produced by PyCifRW module
# 
#  This is a CIF file.  CIF has been adopted by the International
#  Union of Crystallography as the standard for data archiving and 
#  transmission.
#
#  For information on this file format, follow the CIF links at
#  http://www.iucr.org
##########################################################################

data_Na3Ti8O16
_symmetry_space_group_name_H-M          'P 1'
_cell_length_a                          6.12544076132
_cell_length_b                          12.2639623868
_cell_length_c                          8.66211210312
_cell_angle_alpha                       90.0029919314
_cell_angle_beta                        90.0007108142
_cell_angle_gamma                       89.9999901074
_chemical_name_systematic               'Generated by pymatgen'
_symmetry_Int_Tables_number             1
_chemical_formula_structural            Na3Ti8O16
_chemical_formula_sum                   'Na6 Ti16 O32'
_cell_volume                            650.716701206
_cell_formula_units_Z                   2
loop_
  _symmetry_equiv_pos_site_id
  _symmetry_equiv_pos_as_xyz
   1  'x, y, z'
 
loop_
  _atom_site_type_symbol
  _atom_site_label
  _atom_site_symmetry_multiplicity
  _atom_site_fract_x
  _atom_site_fract_y
  _atom_site_fract_z
  _atom_site_attached_hydrogens
  _atom_site_B_iso_or_equiv
  _atom_site_occupancy
   Na  Na1  1  0.749997  0.999978  0.122829  0  .  1
   Na  Na2  1  0.749999  0.748664  0.373834  0  .  1
   Na  Na3  1  0.749999  0.251334  0.373850  0  .  1
   Na  Na4  1  0.250001  0.248711  0.626146  0  .  1
   Na  Na5  1  0.250001  0.751291  0.626165  0  .  1
   Na  Na6  1  0.250000  0.500023  0.877164  0  .  1
   Ti  Ti7  1  0.499988  0.250028  0.000011  0  .  1
   Ti  Ti8  1  0.499994  0.749970  0.000003  0  .  1
   Ti  Ti9  1  0.000013  0.250028  0.000011  0  .  1
   Ti  Ti10  1  0.000006  0.749970  0.000003  0  .  1
   Ti  Ti11  1  0.250000  0.377919  0.248366  0  .  1
   Ti  Ti12  1  0.250000  0.123744  0.242452  0  .  1
   Ti  Ti13  1  0.250000  0.622142  0.248283  0  .  1
   Ti  Ti14  1  0.250001  0.876196  0.242356  0  .  1
   Ti  Ti15  1  0.503554  0.500026  0.495155  0  .  1
   Ti  Ti16  1  0.996446  0.500026  0.495156  0  .  1
   Ti  Ti17  1  0.003538  0.999975  0.504816  0  .  1
   Ti  Ti18  1  0.496464  0.999975  0.504817  0  .  1
   Ti  Ti19  1  0.750000  0.376323  0.757482  0  .  1
   Ti  Ti20  1  0.749998  0.122141  0.751724  0  .  1
   Ti  Ti21  1  0.749999  0.877793  0.751809  0  .  1
   Ti  Ti22  1  0.750000  0.623744  0.757579  0  .  1
   O  O23  1  0.250000  0.355931  0.017522  0  .  1
   O  O24  1  0.250000  0.142606  0.017298  0  .  1
   O  O25  1  0.250000  0.857416  0.017281  0  .  1
   O  O26  1  0.250001  0.644051  0.017528  0  .  1
   O  O27  1  0.037700  0.249216  0.231350  0  .  1
   O  O28  1  0.037696  0.750780  0.231376  0  .  1
   O  O29  1  0.462304  0.750780  0.231376  0  .  1
   O  O30  1  0.462303  0.249216  0.231350  0  .  1
   O  O31  1  0.034965  0.499992  0.266843  0  .  1
   O  O32  1  0.465035  0.499992  0.266843  0  .  1
   O  O33  1  0.036129  0.000003  0.268950  0  .  1
   O  O34  1  0.463876  0.000002  0.268951  0  .  1
   O  O35  1  0.250001  0.606787  0.481036  0  .  1
   O  O36  1  0.250003  0.106495  0.480849  0  .  1
   O  O37  1  0.250000  0.393210  0.481018  0  .  1
   O  O38  1  0.250003  0.893507  0.480857  0  .  1
   O  O39  1  0.749998  0.106788  0.518976  0  .  1
   O  O40  1  0.749999  0.606502  0.519162  0  .  1
   O  O41  1  0.749999  0.393499  0.519170  0  .  1
   O  O42  1  0.749996  0.893214  0.518958  0  .  1
   O  O43  1  0.965016  0.000007  0.733125  0  .  1
   O  O44  1  0.536121  0.499999  0.731064  0  .  1
   O  O45  1  0.534981  0.000007  0.733124  0  .  1
   O  O46  1  0.963879  0.499999  0.731064  0  .  1
   O  O47  1  0.537696  0.250779  0.768652  0  .  1
   O  O48  1  0.537695  0.749226  0.768623  0  .  1
   O  O49  1  0.962302  0.749225  0.768623  0  .  1
   O  O50  1  0.962305  0.250779  0.768651  0  .  1
   O  O51  1  0.750001  0.144072  0.982475  0  .  1
   O  O52  1  0.750000  0.357397  0.982702  0  .  1
   O  O53  1  0.749999  0.855943  0.982470  0  .  1
   O  O54  1  0.750000  0.642579  0.982718  0  .  1
 
