#\#CIF1.1
##########################################################################
#               Crystallographic Information Format file 
#               Produced by PyCifRW module
# 
#  This is a CIF file.  CIF has been adopted by the International
#  Union of Crystallography as the standard for data archiving and 
#  transmission.
#
#  For information on this file format, follow the CIF links at
#  http://www.iucr.org
##########################################################################

data_Na3V5O23
_symmetry_space_group_name_H-M          'P 1'
_cell_length_a                          11.9827814654
_cell_length_b                          10.147290237
_cell_length_c                          8.43521687006
_cell_angle_alpha                       98.4585146003
_cell_angle_beta                        102.143924563
_cell_angle_gamma                       107.187910145
_chemical_name_systematic               'Generated by pymatgen'
_symmetry_Int_Tables_number             1
_chemical_formula_structural            Na3V5O23
_chemical_formula_sum                   'Na6 V10 O46'
_cell_volume                            933.575278538
_cell_formula_units_Z                   2
loop_
  _symmetry_equiv_pos_site_id
  _symmetry_equiv_pos_as_xyz
   1  'x, y, z'
 
loop_
  _atom_site_type_symbol
  _atom_site_label
  _atom_site_symmetry_multiplicity
  _atom_site_fract_x
  _atom_site_fract_y
  _atom_site_fract_z
  _atom_site_attached_hydrogens
  _atom_site_B_iso_or_equiv
  _atom_site_occupancy
   Na  Na1  1  0.346222  0.788363  0.548379  0  .  1
   Na  Na2  1  0.653778  0.211637  0.451621  0  .  1
   Na  Na3  1  0.966434  0.739578  0.542106  0  .  1
   Na  Na4  1  0.033566  0.260422  0.457894  0  .  1
   Na  Na5  1  0.525259  0.392281  0.752964  0  .  1
   Na  Na6  1  0.474741  0.607719  0.247036  0  .  1
   V  V7  1  0.741240  0.810522  0.673684  0  .  1
   V  V8  1  0.258760  0.189478  0.326316  0  .  1
   V  V9  1  0.016263  0.016674  0.816373  0  .  1
   V  V10  1  0.983737  0.983326  0.183627  0  .  1
   V  V11  1  0.718068  0.792945  0.037221  0  .  1
   V  V12  1  0.281932  0.207055  0.962779  0  .  1
   V  V13  1  0.931796  0.707339  0.907656  0  .  1
   V  V14  1  0.068204  0.292661  0.092344  0  .  1
   V  V15  1  0.799701  0.093271  0.948440  0  .  1
   V  V16  1  0.200299  0.906729  0.051560  0  .  1
   O  O17  1  0.887565  0.914964  0.943040  0  .  1
   O  O18  1  0.112435  0.085036  0.056960  0  .  1
   O  O19  1  0.828458  0.682501  0.698863  0  .  1
   O  O20  1  0.171542  0.317499  0.301137  0  .  1
   O  O21  1  0.391835  0.293587  0.889144  0  .  1
   O  O22  1  0.608165  0.706413  0.110856  0  .  1
   O  O23  1  0.065108  0.850022  0.836759  0  .  1
   O  O24  1  0.934892  0.149978  0.163241  0  .  1
   O  O25  1  0.193085  0.339646  0.989947  0  .  1
   O  O26  1  0.806915  0.660354  0.010053  0  .  1
   O  O27  1  0.747876  0.225781  0.951130  0  .  1
   O  O28  1  0.252124  0.774219  0.048870  0  .  1
   O  O29  1  0.900455  0.927694  0.633543  0  .  1
   O  O30  1  0.099545  0.072306  0.366457  0  .  1
   O  O31  1  0.977794  0.572732  0.877929  0  .  1
   O  O32  1  0.022206  0.427268  0.122071  0  .  1
   O  O33  1  0.140321  0.113540  0.758836  0  .  1
   O  O34  1  0.859679  0.886460  0.241164  0  .  1
   O  O35  1  0.954433  0.168087  0.877566  0  .  1
   O  O36  1  0.045567  0.831913  0.122434  0  .  1
   O  O37  1  0.724445  0.986840  0.735269  0  .  1
   O  O38  1  0.275555  0.013160  0.264731  0  .  1
   O  O39  1  0.649122  0.735944  0.809287  0  .  1
   O  O40  1  0.350878  0.264056  0.190713  0  .  1
   O  O41  1  0.298134  0.030884  0.956461  0  .  1
   O  O42  1  0.701866  0.969116  0.043539  0  .  1
   O  O43  1  0.355770  0.257744  0.512743  0  .  1
   O  O44  1  0.644230  0.742256  0.487257  0  .  1
   O  O45  1  0.416919  0.567163  0.677044  0  .  1
   O  O46  1  0.583081  0.432837  0.322956  0  .  1
   O  O47  1  0.169784  0.851808  0.485365  0  .  1
   O  O48  1  0.830216  0.148192  0.514635  0  .  1
   O  O49  1  0.169721  0.468865  0.697408  0  .  1
   O  O50  1  0.830279  0.531135  0.302592  0  .  1
   O  O51  1  0.685929  0.459446  0.003820  0  .  1
   O  O52  1  0.314071  0.540554  0.996180  0  .  1
   O  O53  1  0.619725  0.430751  0.471885  0  .  1
   O  O54  1  0.380275  0.569249  0.528115  0  .  1
   O  O55  1  0.870602  0.262542  0.622760  0  .  1
   O  O56  1  0.129398  0.737458  0.377240  0  .  1
   O  O57  1  0.158403  0.566333  0.629931  0  .  1
   O  O58  1  0.841597  0.433667  0.370069  0  .  1
   O  O59  1  0.516179  0.087895  0.659872  0  .  1
   O  O60  1  0.483821  0.912105  0.340128  0  .  1
   O  O61  1  0.479321  0.998782  0.738978  0  .  1
   O  O62  1  0.520679  0.001218  0.261022  0  .  1
 
