#\#CIF1.1
##########################################################################
#               Crystallographic Information Format file 
#               Produced by PyCifRW module
# 
#  This is a CIF file.  CIF has been adopted by the International
#  Union of Crystallography as the standard for data archiving and 
#  transmission.
#
#  For information on this file format, follow the CIF links at
#  http://www.iucr.org
##########################################################################

data_Na4(NiO2)9
_symmetry_space_group_name_H-M          'P 1'
_cell_length_a                          7.05470794041
_cell_length_b                          7.08787787216
_cell_length_c                          7.49377110395
_cell_angle_alpha                       103.926126582
_cell_angle_beta                        90.5861998583
_cell_angle_gamma                       105.724672685
_chemical_name_systematic               'Generated by pymatgen'
_symmetry_Int_Tables_number             1
_chemical_formula_structural            Na4(NiO2)9
_chemical_formula_sum                   'Na4 Ni9 O18'
_cell_volume                            348.941498322
_cell_formula_units_Z                   1
loop_
  _symmetry_equiv_pos_site_id
  _symmetry_equiv_pos_as_xyz
   1  'x, y, z'
 
loop_
  _atom_site_type_symbol
  _atom_site_label
  _atom_site_symmetry_multiplicity
  _atom_site_fract_x
  _atom_site_fract_y
  _atom_site_fract_z
  _atom_site_attached_hydrogens
  _atom_site_B_iso_or_equiv
  _atom_site_occupancy
   Na  Na1  1  0.103177  0.099209  0.697533  0  .  1
   Na  Na2  1  0.198869  0.197757  0.301695  0  .  1
   Na  Na3  1  0.580504  0.580389  0.364152  0  .  1
   Na  Na4  1  0.673341  0.676811  0.969454  0  .  1
   Ni  Ni5  1  0.057905  0.548528  0.834620  0  .  1
   Ni  Ni6  1  0.502278  0.002381  0.496714  0  .  1
   Ni  Ni7  1  0.168591  0.665639  0.502351  0  .  1
   Ni  Ni8  1  0.609882  0.115079  0.164621  0  .  1
   Ni  Ni9  1  0.717031  0.227522  0.832578  0  .  1
   Ni  Ni10  1  0.276764  0.775125  0.168187  0  .  1
   Ni  Ni11  1  0.834583  0.328948  0.498414  0  .  1
   Ni  Ni12  1  0.388447  0.888382  0.833899  0  .  1
   Ni  Ni13  1  0.942682  0.448652  0.169442  0  .  1
   O  O14  1  0.986433  0.318796  0.929615  0  .  1
   O  O15  1  0.096626  0.401789  0.597821  0  .  1
   O  O16  1  0.331470  0.004647  0.076302  0  .  1
   O  O17  1  0.456372  0.143510  0.727778  0  .  1
   O  O18  1  0.319814  0.631220  0.935990  0  .  1
   O  O19  1  0.564122  0.238500  0.405479  0  .  1
   O  O20  1  0.773202  0.087108  0.571017  0  .  1
   O  O21  1  0.119010  0.782622  0.744359  0  .  1
   O  O22  1  0.216212  0.539627  0.261220  0  .  1
   O  O23  1  0.792311  0.462878  0.735275  0  .  1
   O  O24  1  0.679452  0.385307  0.091992  0  .  1
   O  O25  1  0.443386  0.771336  0.589364  0  .  1
   O  O26  1  0.887224  0.215134  0.256698  0  .  1
   O  O27  1  0.236535  0.924184  0.405789  0  .  1
   O  O28  1  0.897030  0.567156  0.411942  0  .  1
   O  O29  1  0.655403  0.991180  0.927115  0  .  1
   O  O30  1  0.539438  0.853937  0.258155  0  .  1
   O  O31  1  0.007462  0.682204  0.073758  0  .  1
 
