#\#CIF1.1
##########################################################################
#               Crystallographic Information Format file 
#               Produced by PyCifRW module
# 
#  This is a CIF file.  CIF has been adopted by the International
#  Union of Crystallography as the standard for data archiving and 
#  transmission.
#
#  For information on this file format, follow the CIF links at
#  http://www.iucr.org
##########################################################################

data_Na4Cu2S3
_symmetry_space_group_name_H-M          'P 1'
_cell_length_a                          9.52121837506
_cell_length_b                          9.52121837174
_cell_length_c                          19.4740148791
_cell_angle_alpha                       104.149895011
_cell_angle_beta                        104.149895027
_cell_angle_gamma                       90.000003646
_chemical_name_systematic               'Generated by pymatgen'
_symmetry_Int_Tables_number             1
_chemical_formula_structural            Na4Cu2S3
_chemical_formula_sum                   'Na32 Cu16 S24'
_cell_volume                            1656.53292068
_cell_formula_units_Z                   8
loop_
  _symmetry_equiv_pos_site_id
  _symmetry_equiv_pos_as_xyz
   1  'x, y, z'
 
loop_
  _atom_site_type_symbol
  _atom_site_label
  _atom_site_symmetry_multiplicity
  _atom_site_fract_x
  _atom_site_fract_y
  _atom_site_fract_z
  _atom_site_attached_hydrogens
  _atom_site_B_iso_or_equiv
  _atom_site_occupancy
   Na  Na1  1  0.875000  0.125000  0.250000  0  .  1
   Na  Na2  1  0.125000  0.875000  0.750000  0  .  1
   Na  Na3  1  0.375000  0.625000  0.250000  0  .  1
   Na  Na4  1  0.625000  0.375000  0.750000  0  .  1
   Na  Na5  1  0.783075  0.033075  0.066149  0  .  1
   Na  Na6  1  0.033075  0.783075  0.566149  0  .  1
   Na  Na7  1  0.216925  0.966925  0.933851  0  .  1
   Na  Na8  1  0.966925  0.216925  0.433851  0  .  1
   Na  Na9  1  0.366894  0.116894  0.233787  0  .  1
   Na  Na10  1  0.116894  0.366894  0.733787  0  .  1
   Na  Na11  1  0.633106  0.883106  0.766213  0  .  1
   Na  Na12  1  0.883106  0.633106  0.266213  0  .  1
   Na  Na13  1  0.788129  0.538129  0.076258  0  .  1
   Na  Na14  1  0.538129  0.788129  0.576258  0  .  1
   Na  Na15  1  0.211871  0.461871  0.923742  0  .  1
   Na  Na16  1  0.461871  0.211871  0.423742  0  .  1
   Na  Na17  1  0.084028  0.292644  0.078296  0  .  1
   Na  Na18  1  0.785651  0.084028  0.578296  0  .  1
   Na  Na19  1  0.292644  0.494268  0.578296  0  .  1
   Na  Na20  1  0.494268  0.785651  0.078296  0  .  1
   Na  Na21  1  0.915972  0.707356  0.921704  0  .  1
   Na  Na22  1  0.214349  0.915972  0.421704  0  .  1
   Na  Na23  1  0.707356  0.505732  0.421704  0  .  1
   Na  Na24  1  0.505732  0.214349  0.921704  0  .  1
   Na  Na25  1  0.623976  0.369167  0.236407  0  .  1
   Na  Na26  1  0.867241  0.623976  0.736407  0  .  1
   Na  Na27  1  0.369167  0.112431  0.736407  0  .  1
   Na  Na28  1  0.112431  0.867241  0.236407  0  .  1
   Na  Na29  1  0.376024  0.630833  0.763593  0  .  1
   Na  Na30  1  0.132759  0.376024  0.263593  0  .  1
   Na  Na31  1  0.630833  0.887569  0.263593  0  .  1
   Na  Na32  1  0.887569  0.132759  0.763593  0  .  1
   S  S33  1  0.309780  0.262826  0.010910  0  .  1
   S  S34  1  0.748084  0.309780  0.510910  0  .  1
   S  S35  1  0.262826  0.201130  0.510910  0  .  1
   S  S36  1  0.201130  0.748084  0.010910  0  .  1
   S  S37  1  0.690220  0.737174  0.989090  0  .  1
   S  S38  1  0.251916  0.690220  0.489090  0  .  1
   S  S39  1  0.737174  0.798870  0.489090  0  .  1
   S  S40  1  0.798870  0.251916  0.989090  0  .  1
   S  S41  1  0.596172  0.069318  0.165252  0  .  1
   S  S42  1  0.095934  0.596172  0.665252  0  .  1
   S  S43  1  0.069318  0.069080  0.665252  0  .  1
   S  S44  1  0.069080  0.095934  0.165252  0  .  1
   S  S45  1  0.403828  0.930682  0.834748  0  .  1
   S  S46  1  0.904066  0.403828  0.334748  0  .  1
   S  S47  1  0.930682  0.930920  0.334748  0  .  1
   S  S48  1  0.930920  0.904066  0.834748  0  .  1
   S  S49  1  0.073889  0.569280  0.172180  0  .  1
   S  S50  1  0.602900  0.073889  0.672180  0  .  1
   S  S51  1  0.569280  0.598290  0.672180  0  .  1
   S  S52  1  0.598290  0.602900  0.172180  0  .  1
   S  S53  1  0.926111  0.430720  0.827820  0  .  1
   S  S54  1  0.397100  0.926111  0.327820  0  .  1
   S  S55  1  0.430720  0.401710  0.327820  0  .  1
   S  S56  1  0.401710  0.397100  0.827820  0  .  1
   Cu  Cu57  1  0.447259  0.439496  0.091892  0  .  1
   Cu  Cu58  1  0.652396  0.447259  0.591892  0  .  1
   Cu  Cu59  1  0.439496  0.144633  0.591892  0  .  1
   Cu  Cu60  1  0.144633  0.652396  0.091892  0  .  1
   Cu  Cu61  1  0.552741  0.560504  0.908108  0  .  1
   Cu  Cu62  1  0.347604  0.552741  0.408108  0  .  1
   Cu  Cu63  1  0.560504  0.855367  0.408108  0  .  1
   Cu  Cu64  1  0.855367  0.347604  0.908108  0  .  1
   Cu  Cu65  1  0.450481  0.161746  0.087609  0  .  1
   Cu  Cu66  1  0.925863  0.450481  0.587609  0  .  1
   Cu  Cu67  1  0.161746  0.137128  0.587609  0  .  1
   Cu  Cu68  1  0.137128  0.925863  0.087609  0  .  1
   Cu  Cu69  1  0.549519  0.838254  0.912391  0  .  1
   Cu  Cu70  1  0.074137  0.549519  0.412391  0  .  1
   Cu  Cu71  1  0.838254  0.862872  0.412391  0  .  1
   Cu  Cu72  1  0.862872  0.074137  0.912391  0  .  1
 
