#\#CIF1.1
##########################################################################
#               Crystallographic Information Format file 
#               Produced by PyCifRW module
# 
#  This is a CIF file.  CIF has been adopted by the International
#  Union of Crystallography as the standard for data archiving and 
#  transmission.
#
#  For information on this file format, follow the CIF links at
#  http://www.iucr.org
##########################################################################

data_Na4CrO4
_symmetry_space_group_name_H-M          'P 1'
_cell_length_a                          5.76940882078
_cell_length_b                          5.76200042196
_cell_length_c                          8.74029901147
_cell_angle_alpha                       71.353582572
_cell_angle_beta                        81.4362495413
_cell_angle_gamma                       68.3971210614
_chemical_name_systematic               'Generated by pymatgen'
_symmetry_Int_Tables_number             1
_chemical_formula_structural            Na4CrO4
_chemical_formula_sum                   'Na8 Cr2 O8'
_cell_volume                            255.806757489
_cell_formula_units_Z                   2
loop_
  _symmetry_equiv_pos_site_id
  _symmetry_equiv_pos_as_xyz
   1  'x, y, z'
 
loop_
  _atom_site_type_symbol
  _atom_site_label
  _atom_site_symmetry_multiplicity
  _atom_site_fract_x
  _atom_site_fract_y
  _atom_site_fract_z
  _atom_site_attached_hydrogens
  _atom_site_B_iso_or_equiv
  _atom_site_occupancy
   O  O1  1  0.154281  0.149635  0.068663  0  .  1
   O  O2  1  0.027214  0.295455  0.375862  0  .  1
   O  O3  1  0.972786  0.704545  0.624138  0  .  1
   O  O4  1  0.529073  0.637683  0.803794  0  .  1
   O  O5  1  0.470927  0.362317  0.196206  0  .  1
   O  O6  1  0.471657  0.836327  0.361400  0  .  1
   O  O7  1  0.845719  0.850365  0.931337  0  .  1
   O  O8  1  0.528343  0.163673  0.638600  0  .  1
   Na  Na9  1  0.756558  0.053627  0.399448  0  .  1
   Na  Na10  1  0.735225  0.479228  0.567213  0  .  1
   Na  Na11  1  0.268333  0.392625  0.817514  0  .  1
   Na  Na12  1  0.245974  0.758686  0.011980  0  .  1
   Na  Na13  1  0.754026  0.241314  0.988020  0  .  1
   Na  Na14  1  0.264775  0.520772  0.432787  0  .  1
   Na  Na15  1  0.243442  0.946373  0.600552  0  .  1
   Na  Na16  1  0.731667  0.607375  0.182486  0  .  1
   Cr  Cr17  1  0.279105  0.156235  0.242274  0  .  1
   Cr  Cr18  1  0.720895  0.843765  0.757726  0  .  1
 
