#\#CIF1.1
##########################################################################
#               Crystallographic Information Format file 
#               Produced by PyCifRW module
# 
#  This is a CIF file.  CIF has been adopted by the International
#  Union of Crystallography as the standard for data archiving and 
#  transmission.
#
#  For information on this file format, follow the CIF links at
#  http://www.iucr.org
##########################################################################

data_Na4CuO3
_symmetry_space_group_name_H-M          'P 1'
_cell_length_a                          8.1220878387
_cell_length_b                          6.30789688027
_cell_length_c                          5.72774331035
_cell_angle_alpha                       116.901057818
_cell_angle_beta                        90.049567342
_cell_angle_gamma                       111.466704518
_chemical_name_systematic               'Generated by pymatgen'
_symmetry_Int_Tables_number             1
_chemical_formula_structural            Na4CuO3
_chemical_formula_sum                   'Na8 Cu2 O6'
_cell_volume                            238.594664456
_cell_formula_units_Z                   2
loop_
  _symmetry_equiv_pos_site_id
  _symmetry_equiv_pos_as_xyz
   1  'x, y, z'
 
loop_
  _atom_site_type_symbol
  _atom_site_label
  _atom_site_symmetry_multiplicity
  _atom_site_fract_x
  _atom_site_fract_y
  _atom_site_fract_z
  _atom_site_attached_hydrogens
  _atom_site_B_iso_or_equiv
  _atom_site_occupancy
   Na  Na1  1  0.100882  0.655945  0.195108  0  .  1
   Na  Na2  1  0.289519  0.823485  0.736501  0  .  1
   Na  Na3  1  0.195180  0.267381  0.630885  0  .  1
   Na  Na4  1  0.379817  0.463186  0.230167  0  .  1
   Na  Na5  1  0.600966  0.655878  0.767101  0  .  1
   Na  Na6  1  0.788798  0.821879  0.393115  0  .  1
   Na  Na7  1  0.695222  0.268071  0.944234  0  .  1
   Na  Na8  1  0.879986  0.462354  0.540722  0  .  1
   Cu  Cu9  1  0.002470  0.002802  0.008241  0  .  1
   Cu  Cu10  1  0.502250  0.003029  0.299754  0  .  1
   O  O11  1  0.045286  0.901110  0.652422  0  .  1
   O  O12  1  0.084977  0.328584  0.309794  0  .  1
   O  O13  1  0.360010  0.666010  0.995344  0  .  1
   O  O14  1  0.545457  0.902741  0.555722  0  .  1
   O  O15  1  0.585568  0.330184  0.326369  0  .  1
   O  O16  1  0.859684  0.666288  0.977301  0  .  1
 
