#\#CIF1.1
##########################################################################
#               Crystallographic Information Format file 
#               Produced by PyCifRW module
# 
#  This is a CIF file.  CIF has been adopted by the International
#  Union of Crystallography as the standard for data archiving and 
#  transmission.
#
#  For information on this file format, follow the CIF links at
#  http://www.iucr.org
##########################################################################

data_Na4Fe2O5
_symmetry_space_group_name_H-M          'P 1'
_cell_length_a                          5.77272612
_cell_length_b                          9.25428264291
_cell_length_c                          12.0056936155
_cell_angle_alpha                       104.98953205
_cell_angle_beta                        90.0
_cell_angle_gamma                       90.0
_chemical_name_systematic               'Generated by pymatgen'
_symmetry_Int_Tables_number             1
_chemical_formula_structural            Na4Fe2O5
_chemical_formula_sum                   'Na16 Fe8 O20'
_cell_volume                            619.549484384
_cell_formula_units_Z                   4
loop_
  _symmetry_equiv_pos_site_id
  _symmetry_equiv_pos_as_xyz
   1  'x, y, z'
 
loop_
  _atom_site_type_symbol
  _atom_site_label
  _atom_site_symmetry_multiplicity
  _atom_site_fract_x
  _atom_site_fract_y
  _atom_site_fract_z
  _atom_site_attached_hydrogens
  _atom_site_B_iso_or_equiv
  _atom_site_occupancy
   O  O1  1  0.066664  0.687581  0.799673  0  .  1
   O  O2  1  0.670537  0.757229  0.176723  0  .  1
   O  O3  1  0.829463  0.257229  0.676723  0  .  1
   O  O4  1  0.329463  0.242771  0.823277  0  .  1
   O  O5  1  0.740272  0.915584  0.946960  0  .  1
   O  O6  1  0.240272  0.584416  0.553040  0  .  1
   O  O7  1  0.259728  0.084416  0.053040  0  .  1
   O  O8  1  0.759728  0.415584  0.446960  0  .  1
   O  O9  1  0.238632  0.610729  0.057349  0  .  1
   O  O10  1  0.738632  0.889271  0.442651  0  .  1
   O  O11  1  0.761368  0.389271  0.942651  0  .  1
   O  O12  1  0.261368  0.110729  0.557349  0  .  1
   O  O13  1  0.018722  0.979820  0.738799  0  .  1
   O  O14  1  0.170537  0.742771  0.323277  0  .  1
   O  O15  1  0.518722  0.520180  0.761201  0  .  1
   O  O16  1  0.981278  0.020180  0.261201  0  .  1
   O  O17  1  0.566664  0.812419  0.700327  0  .  1
   O  O18  1  0.933336  0.312419  0.200327  0  .  1
   O  O19  1  0.433336  0.187581  0.299673  0  .  1
   O  O20  1  0.481278  0.479820  0.238799  0  .  1
   Na  Na21  1  0.073254  0.838431  0.032901  0  .  1
   Na  Na22  1  0.573254  0.661569  0.467099  0  .  1
   Na  Na23  1  0.885784  0.515707  0.121999  0  .  1
   Na  Na24  1  0.426746  0.338431  0.532901  0  .  1
   Na  Na25  1  0.589318  0.664560  0.962183  0  .  1
   Na  Na26  1  0.089318  0.835440  0.537817  0  .  1
   Na  Na27  1  0.410682  0.335440  0.037817  0  .  1
   Na  Na28  1  0.910682  0.164560  0.462183  0  .  1
   Na  Na29  1  0.380561  0.996511  0.866834  0  .  1
   Na  Na30  1  0.880561  0.503489  0.633166  0  .  1
   Na  Na31  1  0.619439  0.003489  0.133166  0  .  1
   Na  Na32  1  0.119439  0.496511  0.366834  0  .  1
   Na  Na33  1  0.614216  0.015707  0.621999  0  .  1
   Na  Na34  1  0.114216  0.484293  0.878001  0  .  1
   Na  Na35  1  0.385784  0.984293  0.378001  0  .  1
   Na  Na36  1  0.926746  0.161569  0.967099  0  .  1
   Fe  Fe37  1  0.341947  0.659243  0.703352  0  .  1
   Fe  Fe38  1  0.658053  0.340757  0.296648  0  .  1
   Fe  Fe39  1  0.158053  0.159243  0.203352  0  .  1
   Fe  Fe40  1  0.385408  0.656883  0.199482  0  .  1
   Fe  Fe41  1  0.885408  0.843117  0.300518  0  .  1
   Fe  Fe42  1  0.614592  0.343117  0.800518  0  .  1
   Fe  Fe43  1  0.114592  0.156883  0.699482  0  .  1
   Fe  Fe44  1  0.841947  0.840757  0.796648  0  .  1
 
