#\#CIF1.1
##########################################################################
#               Crystallographic Information Format file 
#               Produced by PyCifRW module
# 
#  This is a CIF file.  CIF has been adopted by the International
#  Union of Crystallography as the standard for data archiving and 
#  transmission.
#
#  For information on this file format, follow the CIF links at
#  http://www.iucr.org
##########################################################################

data_Na4Mn2O5
_symmetry_space_group_name_H-M          'P 1'
_cell_length_a                          5.6349043038
_cell_length_b                          5.63490430051
_cell_length_c                          10.3649389022
_cell_angle_alpha                       98.4096865883
_cell_angle_beta                        98.4096865852
_cell_angle_gamma                       117.514269505
_chemical_name_systematic               'Generated by pymatgen'
_symmetry_Int_Tables_number             1
_chemical_formula_structural            Na4Mn2O5
_chemical_formula_sum                   'Na8 Mn4 O10'
_cell_volume                            280.041375651
_cell_formula_units_Z                   2
loop_
  _symmetry_equiv_pos_site_id
  _symmetry_equiv_pos_as_xyz
   1  'x, y, z'
 
loop_
  _atom_site_type_symbol
  _atom_site_label
  _atom_site_symmetry_multiplicity
  _atom_site_fract_x
  _atom_site_fract_y
  _atom_site_fract_z
  _atom_site_attached_hydrogens
  _atom_site_B_iso_or_equiv
  _atom_site_occupancy
   O  O1  1  0.125000  0.875000  0.750000  0  .  1
   O  O2  1  0.690468  0.940468  0.880937  0  .  1
   O  O3  1  0.441861  0.191861  0.383722  0  .  1
   O  O4  1  0.808139  0.558139  0.116278  0  .  1
   O  O5  1  0.558139  0.808139  0.616278  0  .  1
   O  O6  1  0.191861  0.441861  0.883722  0  .  1
   O  O7  1  0.059532  0.309532  0.619063  0  .  1
   O  O8  1  0.309532  0.059532  0.119063  0  .  1
   O  O9  1  0.875000  0.125000  0.250000  0  .  1
   O  O10  1  0.940468  0.690468  0.380937  0  .  1
   Na  Na11  1  0.541029  0.789286  0.069810  0  .  1
   Na  Na12  1  0.971219  0.719476  0.930190  0  .  1
   Na  Na13  1  0.210714  0.458971  0.430190  0  .  1
   Na  Na14  1  0.028781  0.280524  0.069810  0  .  1
   Na  Na15  1  0.458971  0.210714  0.930190  0  .  1
   Na  Na16  1  0.280524  0.028781  0.569810  0  .  1
   Na  Na17  1  0.789286  0.541029  0.569810  0  .  1
   Na  Na18  1  0.719476  0.971219  0.430190  0  .  1
   Mn  Mn19  1  0.905269  0.094731  0.750000  0  .  1
   Mn  Mn20  1  0.655269  0.344731  0.250000  0  .  1
   Mn  Mn21  1  0.094731  0.905269  0.250000  0  .  1
   Mn  Mn22  1  0.344731  0.655269  0.750000  0  .  1
 
