#\#CIF1.1
##########################################################################
#               Crystallographic Information Format file 
#               Produced by PyCifRW module
# 
#  This is a CIF file.  CIF has been adopted by the International
#  Union of Crystallography as the standard for data archiving and 
#  transmission.
#
#  For information on this file format, follow the CIF links at
#  http://www.iucr.org
##########################################################################

data_Na4Mn5O12
_symmetry_space_group_name_H-M          'P 1'
_cell_length_a                          6.10301198895
_cell_length_b                          6.10301198895
_cell_length_c                          14.0896672002
_cell_angle_alpha                       104.774369179
_cell_angle_beta                        75.2256308214
_cell_angle_gamma                       90.4602956196
_chemical_name_systematic               'Generated by pymatgen'
_symmetry_Int_Tables_number             1
_chemical_formula_structural            Na4Mn5O12
_chemical_formula_sum                   'Na8 Mn10 O24'
_cell_volume                            489.753474557
_cell_formula_units_Z                   2
loop_
  _symmetry_equiv_pos_site_id
  _symmetry_equiv_pos_as_xyz
   1  'x, y, z'
 
loop_
  _atom_site_type_symbol
  _atom_site_label
  _atom_site_symmetry_multiplicity
  _atom_site_fract_x
  _atom_site_fract_y
  _atom_site_fract_z
  _atom_site_attached_hydrogens
  _atom_site_B_iso_or_equiv
  _atom_site_occupancy
   Na  Na1  1  0.994819  0.980769  0.994032  0  .  1
   Na  Na2  1  0.403476  0.070133  0.166671  0  .  1
   Na  Na3  1  0.314107  0.661488  0.339301  0  .  1
   Na  Na4  1  0.041683  0.208334  0.416662  0  .  1
   Na  Na5  1  0.769231  0.755181  0.494032  0  .  1
   Na  Na6  1  0.679867  0.346524  0.666671  0  .  1
   Na  Na7  1  0.088512  0.435893  0.839301  0  .  1
   Na  Na8  1  0.541666  0.708317  0.916662  0  .  1
   Mn  Mn9  1  0.698391  0.520058  0.084728  0  .  1
   Mn  Mn10  1  0.202392  0.521229  0.085614  0  .  1
   Mn  Mn11  1  0.853395  0.365070  0.248603  0  .  1
   Mn  Mn12  1  0.854559  0.869064  0.247723  0  .  1
   Mn  Mn13  1  0.541678  0.208345  0.416670  0  .  1
   Mn  Mn14  1  0.229942  0.051609  0.584728  0  .  1
   Mn  Mn15  1  0.228771  0.547608  0.585614  0  .  1
   Mn  Mn16  1  0.384930  0.896605  0.748603  0  .  1
   Mn  Mn17  1  0.880936  0.895441  0.747723  0  .  1
   Mn  Mn18  1  0.541655  0.208322  0.916670  0  .  1
   O  O19  1  0.456888  0.297047  0.068425  0  .  1
   O  O20  1  0.445247  0.714957  0.095117  0  .  1
   O  O21  1  0.938597  0.320306  0.098270  0  .  1
   O  O22  1  0.943659  0.735534  0.094466  0  .  1
   O  O23  1  0.653638  0.605266  0.235060  0  .  1
   O  O24  1  0.068864  0.610333  0.238868  0  .  1
   O  O25  1  0.630382  0.123569  0.264914  0  .  1
   O  O26  1  0.048291  0.111915  0.238209  0  .  1
   O  O27  1  0.769482  0.422138  0.390808  0  .  1
   O  O28  1  0.769941  0.967588  0.389177  0  .  1
   O  O29  1  0.313416  0.449099  0.444160  0  .  1
   O  O30  1  0.313878  0.994540  0.442523  0  .  1
   O  O31  1  0.035043  0.304753  0.595117  0  .  1
   O  O32  1  0.452953  0.293112  0.568425  0  .  1
   O  O33  1  0.014466  0.806341  0.594466  0  .  1
   O  O34  1  0.429694  0.811403  0.598270  0  .  1
   O  O35  1  0.144734  0.096362  0.735060  0  .  1
   O  O36  1  0.139667  0.681136  0.738868  0  .  1
   O  O37  1  0.626431  0.119618  0.764914  0  .  1
   O  O38  1  0.638085  0.701709  0.738209  0  .  1
   O  O39  1  0.327862  0.980518  0.890808  0  .  1
   O  O40  1  0.782412  0.980059  0.889177  0  .  1
   O  O41  1  0.755460  0.436122  0.942523  0  .  1
   O  O42  1  0.300901  0.436584  0.944160  0  .  1
 
