#\#CIF1.1
##########################################################################
#               Crystallographic Information Format file 
#               Produced by PyCifRW module
# 
#  This is a CIF file.  CIF has been adopted by the International
#  Union of Crystallography as the standard for data archiving and 
#  transmission.
#
#  For information on this file format, follow the CIF links at
#  http://www.iucr.org
##########################################################################

data_Na4MnO3
_symmetry_space_group_name_H-M          'P 1'
_cell_length_a                          9.8994787489
_cell_length_b                          9.8994787489
_cell_length_c                          5.49871109
_cell_angle_alpha                       73.875387123
_cell_angle_beta                        106.124612877
_cell_angle_gamma                       73.9386783805
_chemical_name_systematic               'Generated by pymatgen'
_symmetry_Int_Tables_number             1
_chemical_formula_structural            Na4MnO3
_chemical_formula_sum                   'Na16 Mn4 O12'
_cell_volume                            459.310823463
_cell_formula_units_Z                   4
loop_
  _symmetry_equiv_pos_site_id
  _symmetry_equiv_pos_as_xyz
   1  'x, y, z'
 
loop_
  _atom_site_type_symbol
  _atom_site_label
  _atom_site_symmetry_multiplicity
  _atom_site_fract_x
  _atom_site_fract_y
  _atom_site_fract_z
  _atom_site_attached_hydrogens
  _atom_site_B_iso_or_equiv
  _atom_site_occupancy
   Na  Na1  1  0.462053  0.376859  0.006513  0  .  1
   Na  Na2  1  0.527356  0.027356  0.250000  0  .  1
   Na  Na3  1  0.962053  0.876859  0.078680  0  .  1
   Na  Na4  1  0.750000  0.750000  0.098281  0  .  1
   Na  Na5  1  0.250000  0.250000  0.401719  0  .  1
   Na  Na6  1  0.376859  0.462053  0.421320  0  .  1
   Na  Na7  1  0.123141  0.037947  0.506513  0  .  1
   Na  Na8  1  0.027356  0.527356  0.250000  0  .  1
   Na  Na9  1  0.972644  0.472644  0.750000  0  .  1
   Na  Na10  1  0.876859  0.962053  0.493487  0  .  1
   Na  Na11  1  0.623141  0.537947  0.578680  0  .  1
   Na  Na12  1  0.750000  0.750000  0.598281  0  .  1
   Na  Na13  1  0.250000  0.250000  0.901719  0  .  1
   Na  Na14  1  0.037947  0.123141  0.921320  0  .  1
   Na  Na15  1  0.472644  0.972644  0.750000  0  .  1
   Na  Na16  1  0.537947  0.623141  0.993487  0  .  1
   Mn  Mn17  1  0.828488  0.328488  0.250000  0  .  1
   Mn  Mn18  1  0.328488  0.828488  0.250000  0  .  1
   Mn  Mn19  1  0.671512  0.171512  0.750000  0  .  1
   Mn  Mn20  1  0.171512  0.671512  0.750000  0  .  1
   O  O21  1  0.858294  0.141706  0.108294  0  .  1
   O  O22  1  0.288123  0.041573  0.289156  0  .  1
   O  O23  1  0.211877  0.458427  0.042606  0  .  1
   O  O24  1  0.641706  0.358294  0.391706  0  .  1
   O  O25  1  0.541573  0.788123  0.210844  0  .  1
   O  O26  1  0.958427  0.711877  0.457394  0  .  1
   O  O27  1  0.458427  0.211877  0.789156  0  .  1
   O  O28  1  0.041573  0.288123  0.542606  0  .  1
   O  O29  1  0.358294  0.641706  0.608294  0  .  1
   O  O30  1  0.711877  0.958427  0.710844  0  .  1
   O  O31  1  0.788123  0.541573  0.957394  0  .  1
   O  O32  1  0.141706  0.858294  0.891706  0  .  1
 
