#\#CIF1.1
##########################################################################
#               Crystallographic Information Format file 
#               Produced by PyCifRW module
# 
#  This is a CIF file.  CIF has been adopted by the International
#  Union of Crystallography as the standard for data archiving and 
#  transmission.
#
#  For information on this file format, follow the CIF links at
#  http://www.iucr.org
##########################################################################

data_Na4Ni3O7
_symmetry_space_group_name_H-M          'P 1'
_cell_length_a                          7.00620692373
_cell_length_b                          7.0062064657
_cell_length_c                          7.00620682956
_cell_angle_alpha                       69.2707825985
_cell_angle_beta                        69.2707918857
_cell_angle_gamma                       69.2707844754
_chemical_name_systematic               'Generated by pymatgen'
_symmetry_Int_Tables_number             1
_chemical_formula_structural            Na4Ni3O7
_chemical_formula_sum                   'Na8 Ni6 O14'
_cell_volume                            290.365798647
_cell_formula_units_Z                   2
loop_
  _symmetry_equiv_pos_site_id
  _symmetry_equiv_pos_as_xyz
   1  'x, y, z'
 
loop_
  _atom_site_type_symbol
  _atom_site_label
  _atom_site_symmetry_multiplicity
  _atom_site_fract_x
  _atom_site_fract_y
  _atom_site_fract_z
  _atom_site_attached_hydrogens
  _atom_site_B_iso_or_equiv
  _atom_site_occupancy
   Na  Na1  1  0.914996  0.359509  0.209883  0  .  1
   Na  Na2  1  0.788080  0.067026  0.629282  0  .  1
   Na  Na3  1  0.647260  0.799290  0.069063  0  .  1
   Na  Na4  1  0.571429  0.142857  0.285714  0  .  1
   Na  Na5  1  0.495597  0.486424  0.502366  0  .  1
   Na  Na6  1  0.354777  0.218689  0.942147  0  .  1
   Na  Na7  1  0.227861  0.926206  0.361546  0  .  1
   Na  Na8  1  0.071429  0.642857  0.785714  0  .  1
   Ni  Ni9  1  0.861767  0.711191  0.429445  0  .  1
   Ni  Ni10  1  0.715160  0.433196  0.854048  0  .  1
   Ni  Ni11  1  0.003095  0.999126  0.995376  0  .  1
   Ni  Ni12  1  0.281090  0.574523  0.141983  0  .  1
   Ni  Ni13  1  0.139763  0.286588  0.576053  0  .  1
   Ni  Ni14  1  0.427697  0.852519  0.717380  0  .  1
   O  O15  1  0.989688  0.688912  0.121896  0  .  1
   O  O16  1  0.910232  0.997516  0.293117  0  .  1
   O  O17  1  0.842977  0.414406  0.557263  0  .  1
   O  O18  1  0.578831  0.481661  0.140373  0  .  1
   O  O19  1  0.564026  0.804054  0.431056  0  .  1
   O  O20  1  0.716770  0.135455  0.946911  0  .  1
   O  O21  1  0.232625  0.288199  0.278312  0  .  1
   O  O22  1  0.299880  0.871308  0.014165  0  .  1
   O  O23  1  0.735247  0.724598  0.739660  0  .  1
   O  O24  1  0.426087  0.150260  0.624518  0  .  1
   O  O25  1  0.407610  0.561116  0.831769  0  .  1
   O  O26  1  0.153170  0.596803  0.449533  0  .  1
   O  O27  1  0.117483  0.979039  0.703973  0  .  1
   O  O28  1  0.025374  0.306676  0.867455  0  .  1
 
