#\#CIF1.1
##########################################################################
#               Crystallographic Information Format file 
#               Produced by PyCifRW module
# 
#  This is a CIF file.  CIF has been adopted by the International
#  Union of Crystallography as the standard for data archiving and 
#  transmission.
#
#  For information on this file format, follow the CIF links at
#  http://www.iucr.org
##########################################################################

data_Na4NiO4
_symmetry_space_group_name_H-M          'P 1'
_cell_length_a                          10.1256028569
_cell_length_b                          6.04007027
_cell_length_c                          17.5457913496
_cell_angle_alpha                       90.0
_cell_angle_beta                        91.0532712378
_cell_angle_gamma                       90.0
_chemical_name_systematic               'Generated by pymatgen'
_symmetry_Int_Tables_number             1
_chemical_formula_structural            Na4NiO4
_chemical_formula_sum                   'Na32 Ni8 O32'
_cell_volume                            1072.90793005
_cell_formula_units_Z                   8
loop_
  _symmetry_equiv_pos_site_id
  _symmetry_equiv_pos_as_xyz
   1  'x, y, z'
 
loop_
  _atom_site_type_symbol
  _atom_site_label
  _atom_site_symmetry_multiplicity
  _atom_site_fract_x
  _atom_site_fract_y
  _atom_site_fract_z
  _atom_site_attached_hydrogens
  _atom_site_B_iso_or_equiv
  _atom_site_occupancy
   Na  Na1  1  0.149920  0.346095  0.352368  0  .  1
   Na  Na2  1  0.149920  0.153905  0.852368  0  .  1
   Na  Na3  1  0.196500  0.636882  0.147959  0  .  1
   Na  Na4  1  0.196500  0.863118  0.647959  0  .  1
   Na  Na5  1  0.288319  0.579784  0.806366  0  .  1
   Na  Na6  1  0.288319  0.920216  0.306366  0  .  1
   Na  Na7  1  0.324467  0.084488  0.499937  0  .  1
   Na  Na8  1  0.324467  0.415512  -0.000063  0  .  1
   Na  Na9  1  0.395385  0.349929  0.240341  0  .  1
   Na  Na10  1  0.395385  0.150071  0.740341  0  .  1
   Na  Na11  1  0.397898  0.906753  0.923551  0  .  1
   Na  Na12  1  0.397898  0.593247  0.423551  0  .  1
   Na  Na13  1  0.548188  0.067291  0.061794  0  .  1
   Na  Na14  1  0.548188  0.432709  0.561794  0  .  1
   Na  Na15  1  0.590778  0.879586  0.253226  0  .  1
   Na  Na16  1  0.590778  0.620414  0.753226  0  .  1
   Na  Na17  1  0.649473  0.589829  0.001339  0  .  1
   Na  Na18  1  0.649473  0.910171  0.501339  0  .  1
   Na  Na19  1  0.685866  0.398593  0.175166  0  .  1
   Na  Na20  1  0.685866  0.101407  0.675166  0  .  1
   Na  Na21  1  0.697856  0.940346  0.867259  0  .  1
   Na  Na22  1  0.697856  0.559654  0.367259  0  .  1
   Na  Na23  1  0.805284  0.083872  0.363224  0  .  1
   Na  Na24  1  0.805284  0.416128  0.863224  0  .  1
   Na  Na25  1  0.841002  0.585248  0.675225  0  .  1
   Na  Na26  1  0.841002  0.914752  0.175225  0  .  1
   Na  Na27  1  0.866159  0.408994  0.504285  0  .  1
   Na  Na28  1  0.866159  0.091006  0.004285  0  .  1
   Na  Na29  1  0.937488  0.068258  0.745471  0  .  1
   Na  Na30  1  0.937488  0.431742  0.245471  0  .  1
   Na  Na31  1  0.968794  0.918381  0.547624  0  .  1
   Na  Na32  1  0.968794  0.581619  0.047624  0  .  1
   Ni  Ni33  1  0.065313  0.176196  0.129911  0  .  1
   Ni  Ni34  1  0.065313  0.323804  0.629911  0  .  1
   Ni  Ni35  1  0.472651  0.832976  0.624866  0  .  1
   Ni  Ni36  1  0.472651  0.667024  0.124866  0  .  1
   Ni  Ni37  1  0.534737  0.162736  0.376544  0  .  1
   Ni  Ni38  1  0.534737  0.337264  0.876544  0  .  1
   Ni  Ni39  1  0.957479  0.693160  0.375880  0  .  1
   Ni  Ni40  1  0.957479  0.806840  0.875880  0  .  1
   O  O41  1  0.036636  0.612124  0.617548  0  .  1
   O  O42  1  0.036636  0.887876  0.117548  0  .  1
   O  O43  1  0.143387  0.285405  0.214690  0  .  1
   O  O44  1  0.143387  0.214595  0.714690  0  .  1
   O  O45  1  0.134776  0.337773  0.058885  0  .  1
   O  O46  1  0.134776  0.162227  0.558885  0  .  1
   O  O47  1  0.127591  0.737806  0.368713  0  .  1
   O  O48  1  0.127591  0.762194  0.868713  0  .  1
   O  O49  1  0.358654  0.252418  0.873201  0  .  1
   O  O50  1  0.358654  0.247582  0.373201  0  .  1
   O  O51  1  0.393384  0.777019  0.041633  0  .  1
   O  O52  1  0.393384  0.722981  0.541633  0  .  1
   O  O53  1  0.388752  0.765594  0.712228  0  .  1
   O  O54  1  0.388752  0.734406  0.212228  0  .  1
   O  O55  1  0.479345  0.372750  0.115279  0  .  1
   O  O56  1  0.479345  0.127250  0.615279  0  .  1
   O  O57  1  0.541567  0.857260  0.381178  0  .  1
   O  O58  1  0.541567  0.642740  0.881177  0  .  1
   O  O59  1  0.621747  0.249123  0.787777  0  .  1
   O  O60  1  0.621747  0.250877  0.287777  0  .  1
   O  O61  1  0.635456  0.215108  0.955720  0  .  1
   O  O62  1  0.635456  0.284892  0.455720  0  .  1
   O  O63  1  0.645419  0.731654  0.628477  0  .  1
   O  O64  1  0.645419  0.768346  0.128477  0  .  1
   O  O65  1  0.885308  0.223550  0.627595  0  .  1
   O  O66  1  0.885308  0.276450  0.127595  0  .  1
   O  O67  1  0.850667  0.783391  0.450039  0  .  1
   O  O68  1  0.850667  0.716609  0.950039  0  .  1
   O  O69  1  0.852742  0.733453  0.792694  0  .  1
   O  O70  1  0.852742  0.766547  0.292694  0  .  1
   O  O71  1  0.933371  0.391863  0.378017  0  .  1
   O  O72  1  0.933371  0.108137  0.878017  0  .  1
 
