#\#CIF1.1
##########################################################################
#               Crystallographic Information Format file 
#               Produced by PyCifRW module
# 
#  This is a CIF file.  CIF has been adopted by the International
#  Union of Crystallography as the standard for data archiving and 
#  transmission.
#
#  For information on this file format, follow the CIF links at
#  http://www.iucr.org
##########################################################################

data_Na4TiSe4
_symmetry_space_group_name_H-M          'P 1'
_cell_length_a                          7.4068150706
_cell_length_b                          14.604217848
_cell_length_c                          18.5526096623
_cell_angle_alpha                       80.8550854492
_cell_angle_beta                        78.4854677688
_cell_angle_gamma                       75.3102585442
_chemical_name_systematic               'Generated by pymatgen'
_symmetry_Int_Tables_number             1
_chemical_formula_structural            Na4TiSe4
_chemical_formula_sum                   'Na32 Ti8 Se32'
_cell_volume                            1889.72226085
_cell_formula_units_Z                   8
loop_
  _symmetry_equiv_pos_site_id
  _symmetry_equiv_pos_as_xyz
   1  'x, y, z'
 
loop_
  _atom_site_type_symbol
  _atom_site_label
  _atom_site_symmetry_multiplicity
  _atom_site_fract_x
  _atom_site_fract_y
  _atom_site_fract_z
  _atom_site_attached_hydrogens
  _atom_site_B_iso_or_equiv
  _atom_site_occupancy
   Na  Na1  1  0.826496  0.644417  0.184518  0  .  1
   Na  Na2  1  0.155431  0.855583  0.315482  0  .  1
   Na  Na3  1  0.173504  0.355583  0.815482  0  .  1
   Na  Na4  1  0.844569  0.144417  0.684518  0  .  1
   Na  Na5  1  0.632871  0.862968  0.326334  0  .  1
   Na  Na6  1  0.322173  0.637032  0.173666  0  .  1
   Na  Na7  1  0.367129  0.137032  0.673666  0  .  1
   Na  Na8  1  0.677827  0.362968  0.826334  0  .  1
   Na  Na9  1  0.381634  0.134769  0.063327  0  .  1
   Na  Na10  1  0.079731  0.365231  0.436673  0  .  1
   Na  Na11  1  0.618366  0.865231  0.936673  0  .  1
   Na  Na12  1  0.920269  0.634769  0.563327  0  .  1
   Na  Na13  1  0.697394  0.506199  0.364024  0  .  1
   Na  Na14  1  0.067617  0.993801  0.135976  0  .  1
   Na  Na15  1  0.302606  0.493801  0.635976  0  .  1
   Na  Na16  1  0.932383  0.006199  0.864024  0  .  1
   Na  Na17  1  0.907036  0.179559  0.979888  0  .  1
   Na  Na18  1  0.566483  0.320441  0.520112  0  .  1
   Na  Na19  1  0.092964  0.820441  0.020112  0  .  1
   Na  Na20  1  0.433517  0.679559  0.479888  0  .  1
   Na  Na21  1  0.384830  0.868410  0.776784  0  .  1
   Na  Na22  1  0.530024  0.631590  0.723216  0  .  1
   Na  Na23  1  0.615170  0.131590  0.223216  0  .  1
   Na  Na24  1  0.469976  0.368410  0.276784  0  .  1
   Na  Na25  1  0.039391  0.365714  0.211022  0  .  1
   Na  Na26  1  0.116128  0.134286  0.288978  0  .  1
   Na  Na27  1  0.960609  0.634286  0.788978  0  .  1
   Na  Na28  1  0.883872  0.865714  0.711022  0  .  1
   Na  Na29  1  0.285086  0.409298  0.992876  0  .  1
   Na  Na30  1  0.187259  0.090702  0.507124  0  .  1
   Na  Na31  1  0.714914  0.590702  0.007124  0  .  1
   Na  Na32  1  0.812741  0.909298  0.492876  0  .  1
   Ti  Ti33  1  0.725285  0.346464  0.096802  0  .  1
   Ti  Ti34  1  0.668552  0.153536  0.403198  0  .  1
   Ti  Ti35  1  0.274715  0.653536  0.903198  0  .  1
   Ti  Ti36  1  0.331448  0.846464  0.596802  0  .  1
   Ti  Ti37  1  0.345115  0.108269  0.871932  0  .  1
   Ti  Ti38  1  0.825316  0.391731  0.628068  0  .  1
   Ti  Ti39  1  0.654885  0.891731  0.128068  0  .  1
   Ti  Ti40  1  0.174684  0.608269  0.371932  0  .  1
   Se  Se41  1  0.160418  0.979723  0.662957  0  .  1
   Se  Se42  1  0.303097  0.520277  0.837043  0  .  1
   Se  Se43  1  0.839582  0.020278  0.337043  0  .  1
   Se  Se44  1  0.696903  0.479722  0.162957  0  .  1
   Se  Se45  1  0.643794  0.800654  0.630212  0  .  1
   Se  Se46  1  0.574661  0.699346  0.869788  0  .  1
   Se  Se47  1  0.356206  0.199346  0.369788  0  .  1
   Se  Se48  1  0.425339  0.300654  0.130212  0  .  1
   Se  Se49  1  0.810974  0.390621  0.967213  0  .  1
   Se  Se50  1  0.668808  0.109379  0.532787  0  .  1
   Se  Se51  1  0.189026  0.609379  0.032787  0  .  1
   Se  Se52  1  0.331192  0.890621  0.467213  0  .  1
   Se  Se53  1  0.958917  0.208273  0.137467  0  .  1
   Se  Se54  1  0.804658  0.291727  0.362533  0  .  1
   Se  Se55  1  0.041083  0.791727  0.862533  0  .  1
   Se  Se56  1  0.195342  0.708273  0.637467  0  .  1
   Se  Se57  1  0.245621  0.002741  0.975585  0  .  1
   Se  Se58  1  0.723947  0.497259  0.524415  0  .  1
   Se  Se59  1  0.754379  0.997259  0.024415  0  .  1
   Se  Se60  1  0.276053  0.502741  0.475585  0  .  1
   Se  Se61  1  0.440147  0.677677  0.312805  0  .  1
   Se  Se62  1  0.930629  0.822323  0.187195  0  .  1
   Se  Se63  1  0.559853  0.322323  0.687195  0  .  1
   Se  Se64  1  0.069371  0.177677  0.812805  0  .  1
   Se  Se65  1  0.095867  0.516147  0.288538  0  .  1
   Se  Se66  1  0.400552  0.983853  0.211462  0  .  1
   Se  Se67  1  0.904133  0.483853  0.711462  0  .  1
   Se  Se68  1  0.599448  0.016147  0.788538  0  .  1
   Se  Se69  1  0.912485  0.731745  0.412841  0  .  1
   Se  Se70  1  0.557071  0.768255  0.087159  0  .  1
   Se  Se71  1  0.087515  0.268255  0.587159  0  .  1
   Se  Se72  1  0.442929  0.231745  0.912841  0  .  1
 
