#\#CIF1.1
##########################################################################
#               Crystallographic Information Format file 
#               Produced by PyCifRW module
# 
#  This is a CIF file.  CIF has been adopted by the International
#  Union of Crystallography as the standard for data archiving and 
#  transmission.
#
#  For information on this file format, follow the CIF links at
#  http://www.iucr.org
##########################################################################

data_Na4Ti5O12
_symmetry_space_group_name_H-M          'P 1'
_cell_length_a                          6.1947659485
_cell_length_b                          6.19609808633
_cell_length_c                          14.2691492951
_cell_angle_alpha                       100.611850242
_cell_angle_beta                        104.555036605
_cell_angle_gamma                       89.8274820983
_chemical_name_systematic               'Generated by pymatgen'
_symmetry_Int_Tables_number             1
_chemical_formula_structural            Na4Ti5O12
_chemical_formula_sum                   'Na8 Ti10 O24'
_cell_volume                            520.514995402
_cell_formula_units_Z                   2
loop_
  _symmetry_equiv_pos_site_id
  _symmetry_equiv_pos_as_xyz
   1  'x, y, z'
 
loop_
  _atom_site_type_symbol
  _atom_site_label
  _atom_site_symmetry_multiplicity
  _atom_site_fract_x
  _atom_site_fract_y
  _atom_site_fract_z
  _atom_site_attached_hydrogens
  _atom_site_B_iso_or_equiv
  _atom_site_occupancy
   Na  Na1  1  0.019587  0.004785  0.003312  0  .  1
   Na  Na2  1  0.291631  0.541698  0.083302  0  .  1
   Na  Na3  1  0.563614  0.078529  0.163338  0  .  1
   Na  Na4  1  0.650663  0.650639  0.333381  0  .  1
   Na  Na5  1  0.248317  0.733497  0.503275  0  .  1
   Na  Na6  1  0.791674  0.541652  0.583332  0  .  1
   Na  Na7  1  0.335024  0.349864  0.663392  0  .  1
   Na  Na8  1  0.932676  0.432624  0.833276  0  .  1
   Ti  Ti9  1  0.791608  0.541712  0.083361  0  .  1
   Ti  Ti10  1  0.096800  0.378882  0.246663  0  .  1
   Ti  Ti11  1  0.110330  0.880346  0.248427  0  .  1
   Ti  Ti12  1  0.465549  0.183492  0.420003  0  .  1
   Ti  Ti13  1  0.965198  0.195113  0.418263  0  .  1
   Ti  Ti14  1  0.791735  0.041655  0.583345  0  .  1
   Ti  Ti15  1  0.117863  0.899754  0.746694  0  .  1
   Ti  Ti16  1  0.618217  0.888288  0.748378  0  .  1
   Ti  Ti17  1  0.472963  0.202942  0.918234  0  .  1
   Ti  Ti18  1  0.486648  0.704309  0.919972  0  .  1
   O  O19  1  0.561716  0.302482  0.055926  0  .  1
   O  O20  1  0.557450  0.758195  0.056939  0  .  1
   O  O21  1  0.021621  0.780912  0.110742  0  .  1
   O  O22  1  0.025885  0.325174  0.109710  0  .  1
   O  O23  1  0.863342  0.592665  0.230630  0  .  1
   O  O24  1  0.291850  0.618518  0.263573  0  .  1
   O  O25  1  0.317380  0.113528  0.259934  0  .  1
   O  O26  1  0.900355  0.114251  0.265624  0  .  1
   O  O27  1  0.182377  0.968117  0.401073  0  .  1
   O  O28  1  0.186849  0.390696  0.406724  0  .  1
   O  O29  1  0.688502  0.361646  0.403115  0  .  1
   O  O30  1  0.695565  0.966187  0.436021  0  .  1
   O  O31  1  0.003627  0.244106  0.555986  0  .  1
   O  O32  1  0.548849  0.249554  0.556940  0  .  1
   O  O33  1  0.034527  0.833736  0.609759  0  .  1
   O  O34  1  0.579716  0.839147  0.610697  0  .  1
   O  O35  1  0.887709  0.117092  0.730647  0  .  1
   O  O36  1  0.894853  0.721695  0.763581  0  .  1
   O  O37  1  0.396469  0.692678  0.759970  0  .  1
   O  O38  1  0.400938  0.115233  0.765591  0  .  1
   O  O39  1  0.265885  0.969876  0.906719  0  .  1
   O  O40  1  0.682972  0.969147  0.901041  0  .  1
   O  O41  1  0.291480  0.464832  0.903092  0  .  1
   O  O42  1  0.719988  0.490754  0.936016  0  .  1
 
