#\#CIF1.1
##########################################################################
#               Crystallographic Information Format file 
#               Produced by PyCifRW module
# 
#  This is a CIF file.  CIF has been adopted by the International
#  Union of Crystallography as the standard for data archiving and 
#  transmission.
#
#  For information on this file format, follow the CIF links at
#  http://www.iucr.org
##########################################################################

data_Na4Ti11O24
_symmetry_space_group_name_H-M          'P 1'
_cell_length_a                          6.15520899249
_cell_length_b                          10.5039486614
_cell_length_c                          8.76497491776
_cell_angle_alpha                       66.0710883247
_cell_angle_beta                        92.2858813472
_cell_angle_gamma                       73.9521322802
_chemical_name_systematic               'Generated by pymatgen'
_symmetry_Int_Tables_number             1
_chemical_formula_structural            Na4Ti11O24
_chemical_formula_sum                   'Na4 Ti11 O24'
_cell_volume                            490.287942717
_cell_formula_units_Z                   1
loop_
  _symmetry_equiv_pos_site_id
  _symmetry_equiv_pos_as_xyz
   1  'x, y, z'
 
loop_
  _atom_site_type_symbol
  _atom_site_label
  _atom_site_symmetry_multiplicity
  _atom_site_fract_x
  _atom_site_fract_y
  _atom_site_fract_z
  _atom_site_attached_hydrogens
  _atom_site_B_iso_or_equiv
  _atom_site_occupancy
   Na  Na1  1  0.511322  0.010236  0.742463  0  .  1
   Na  Na2  1  0.188337  0.656514  0.419269  0  .  1
   Na  Na3  1  0.583491  0.333333  0.709142  0  .  1
   Na  Na4  1  0.820083  0.333431  0.091880  0  .  1
   Ti  Ti5  1  0.076570  0.332980  0.707021  0  .  1
   Ti  Ti6  1  0.232404  0.497045  0.875649  0  .  1
   Ti  Ti7  1  0.083760  0.831525  0.709993  0  .  1
   Ti  Ti8  1  0.396119  0.170034  0.039569  0  .  1
   Ti  Ti9  1  0.255903  0.994264  0.376723  0  .  1
   Ti  Ti10  1  0.410963  0.670761  0.038409  0  .  1
   Ti  Ti11  1  0.581958  0.835261  0.207999  0  .  1
   Ti  Ti12  1  0.931805  0.172703  0.539029  0  .  1
   Ti  Ti13  1  0.771194  0.493923  0.378745  0  .  1
   Ti  Ti14  1  0.748082  0.996188  0.375643  0  .  1
   Ti  Ti15  1  0.917287  0.671976  0.038101  0  .  1
   O  O16  1  0.091159  0.333323  0.940869  0  .  1
   O  O17  1  0.077761  0.333197  0.476626  0  .  1
   O  O18  1  0.227355  0.485529  0.673301  0  .  1
   O  O19  1  0.379652  0.181265  0.825510  0  .  1
   O  O20  1  0.099911  0.820291  0.942379  0  .  1
   O  O21  1  0.067367  0.847425  0.473956  0  .  1
   O  O22  1  0.427159  0.129404  0.306726  0  .  1
   O  O23  1  0.223285  0.537426  0.103034  0  .  1
   O  O24  1  0.500486  0.333398  0.985923  0  .  1
   O  O25  1  0.372054  0.662492  0.817296  0  .  1
   O  O26  1  0.228560  0.989417  0.605476  0  .  1
   O  O27  1  0.701248  0.004226  0.146468  0  .  1
   O  O28  1  0.280642  0.989220  0.154772  0  .  1
   O  O29  1  0.795423  0.003145  0.599626  0  .  1
   O  O30  1  0.465339  0.663509  0.269434  0  .  1
   O  O31  1  0.663678  0.333302  0.427616  0  .  1
   O  O32  1  0.581202  0.819460  0.988166  0  .  1
   O  O33  1  0.586767  0.846510  0.429378  0  .  1
   O  O34  1  0.941280  0.179804  0.745127  0  .  1
   O  O35  1  0.787801  0.486696  0.591740  0  .  1
   O  O36  1  0.944714  0.128043  0.317070  0  .  1
   O  O37  1  0.739322  0.538821  0.111500  0  .  1
   O  O38  1  0.884699  0.677075  0.261729  0  .  1
   O  O39  1  0.936710  0.677304  0.810734  0  .  1
 
