#\#CIF1.1
##########################################################################
#               Crystallographic Information Format file 
#               Produced by PyCifRW module
# 
#  This is a CIF file.  CIF has been adopted by the International
#  Union of Crystallography as the standard for data archiving and 
#  transmission.
#
#  For information on this file format, follow the CIF links at
#  http://www.iucr.org
##########################################################################

data_Na5(NiO2)6
_symmetry_space_group_name_H-M          'P 1'
_cell_length_a                          6.85380105099
_cell_length_b                          6.90597895596
_cell_length_c                          5.98443077282
_cell_angle_alpha                       76.8409346019
_cell_angle_beta                        112.789982263
_cell_angle_gamma                       113.193053108
_chemical_name_systematic               'Generated by pymatgen'
_symmetry_Int_Tables_number             1
_chemical_formula_structural            Na5(NiO2)6
_chemical_formula_sum                   'Na5 Ni6 O12'
_cell_volume                            239.093449545
_cell_formula_units_Z                   1
loop_
  _symmetry_equiv_pos_site_id
  _symmetry_equiv_pos_as_xyz
   1  'x, y, z'
 
loop_
  _atom_site_type_symbol
  _atom_site_label
  _atom_site_symmetry_multiplicity
  _atom_site_fract_x
  _atom_site_fract_y
  _atom_site_fract_z
  _atom_site_attached_hydrogens
  _atom_site_B_iso_or_equiv
  _atom_site_occupancy
   Na  Na1  1  0.510024  0.006272  0.263081  0  .  1
   Na  Na2  1  0.833347  0.333331  0.083313  0  .  1
   Na  Na3  1  0.518900  0.016087  0.745023  0  .  1
   Na  Na4  1  0.147768  0.650588  0.421642  0  .  1
   Na  Na5  1  0.156635  0.660379  0.903586  0  .  1
   Ni  Ni6  1  0.001951  0.999552  0.002773  0  .  1
   Ni  Ni7  1  0.001484  0.000315  0.503193  0  .  1
   Ni  Ni8  1  0.336204  0.331869  0.335001  0  .  1
   Ni  Ni9  1  0.664724  0.667132  0.163879  0  .  1
   Ni  Ni10  1  0.330474  0.334818  0.831690  0  .  1
   Ni  Ni11  1  0.665172  0.666337  0.663486  0  .  1
   O  O12  1  0.228998  0.029113  0.373405  0  .  1
   O  O13  1  0.548807  0.364798  0.178927  0  .  1
   O  O14  1  0.117294  0.301545  0.478739  0  .  1
   O  O15  1  0.230117  0.032255  0.873789  0  .  1
   O  O16  1  0.890217  0.694708  0.033540  0  .  1
   O  O17  1  0.436557  0.634442  0.292880  0  .  1
   O  O18  1  0.549385  0.365131  0.688117  0  .  1
   O  O19  1  0.117833  0.301851  0.987552  0  .  1
   O  O20  1  0.776448  0.971962  0.133128  0  .  1
   O  O21  1  0.887451  0.700051  0.529032  0  .  1
   O  O22  1  0.437660  0.637520  0.793261  0  .  1
   O  O23  1  0.779215  0.966610  0.637630  0  .  1
 
