#\#CIF1.1
##########################################################################
#               Crystallographic Information Format file 
#               Produced by PyCifRW module
# 
#  This is a CIF file.  CIF has been adopted by the International
#  Union of Crystallography as the standard for data archiving and 
#  transmission.
#
#  For information on this file format, follow the CIF links at
#  http://www.iucr.org
##########################################################################

data_Na5Co2O5
_symmetry_space_group_name_H-M          'P 1'
_cell_length_a                          8.17064143
_cell_length_b                          8.55517788404
_cell_length_c                          11.5004647124
_cell_angle_alpha                       102.898225728
_cell_angle_beta                        90.0
_cell_angle_gamma                       118.523951825
_chemical_name_systematic               'Generated by pymatgen'
_symmetry_Int_Tables_number             1
_chemical_formula_structural            Na5Co2O5
_chemical_formula_sum                   'Na20 Co8 O20'
_cell_volume                            683.143269976
_cell_formula_units_Z                   4
loop_
  _symmetry_equiv_pos_site_id
  _symmetry_equiv_pos_as_xyz
   1  'x, y, z'
 
loop_
  _atom_site_type_symbol
  _atom_site_label
  _atom_site_symmetry_multiplicity
  _atom_site_fract_x
  _atom_site_fract_y
  _atom_site_fract_z
  _atom_site_attached_hydrogens
  _atom_site_B_iso_or_equiv
  _atom_site_occupancy
   Na  Na1  1  0.000462  0.671845  0.960113  0  .  1
   Na  Na2  1  0.596979  0.975643  0.376739  0  .  1
   Na  Na3  1  0.671383  0.671845  0.460113  0  .  1
   Na  Na4  1  0.621336  0.024357  0.123261  0  .  1
   Na  Na5  1  0.378664  0.975643  0.876739  0  .  1
   Na  Na6  1  0.201743  0.213030  0.810006  0  .  1
   Na  Na7  1  0.403021  0.024357  0.623261  0  .  1
   Na  Na8  1  0.011287  0.213030  0.310006  0  .  1
   Na  Na9  1  0.206354  0.603136  0.483106  0  .  1
   Na  Na10  1  0.999538  0.328155  0.039887  0  .  1
   Na  Na11  1  0.222172  0.788079  0.211861  0  .  1
   Na  Na12  1  0.793646  0.396864  0.516894  0  .  1
   Na  Na13  1  0.988713  0.786970  0.689994  0  .  1
   Na  Na14  1  0.603218  0.396864  0.016894  0  .  1
   Na  Na15  1  0.434093  0.211921  0.288139  0  .  1
   Na  Na16  1  0.396782  0.603136  0.983106  0  .  1
   Na  Na17  1  0.328617  0.328155  0.539887  0  .  1
   Na  Na18  1  0.777828  0.211921  0.788139  0  .  1
   Na  Na19  1  0.798257  0.786970  0.189994  0  .  1
   Na  Na20  1  0.565907  0.788079  0.711861  0  .  1
   Co  Co21  1  0.084550  0.900696  0.443081  0  .  1
   Co  Co22  1  0.855560  0.469549  0.268074  0  .  1
   Co  Co23  1  0.183854  0.099304  0.056919  0  .  1
   Co  Co24  1  0.386011  0.530451  0.231926  0  .  1
   Co  Co25  1  0.915450  0.099304  0.556919  0  .  1
   Co  Co26  1  0.816146  0.900696  0.943081  0  .  1
   Co  Co27  1  0.613989  0.469549  0.768074  0  .  1
   Co  Co28  1  0.144440  0.530451  0.731926  0  .  1
   O  O29  1  0.315770  0.993019  0.089943  0  .  1
   O  O30  1  0.957144  0.650027  0.428830  0  .  1
   O  O31  1  0.322751  0.006981  0.410057  0  .  1
   O  O32  1  0.351718  0.446307  0.366188  0  .  1
   O  O33  1  0.648282  0.553693  0.633811  0  .  1
   O  O34  1  0.094589  0.446307  0.866189  0  .  1
   O  O35  1  0.514704  0.250783  0.807458  0  .  1
   O  O36  1  0.692883  0.650027  0.928830  0  .  1
   O  O37  1  0.485296  0.749217  0.192542  0  .  1
   O  O38  1  0.736079  0.250783  0.307458  0  .  1
   O  O39  1  0.060347  0.957744  0.892310  0  .  1
   O  O40  1  0.307117  0.349973  0.071170  0  .  1
   O  O41  1  0.263921  0.749217  0.692542  0  .  1
   O  O42  1  0.939653  0.042256  0.107690  0  .  1
   O  O43  1  0.677249  0.993019  0.589943  0  .  1
   O  O44  1  0.102602  0.042256  0.607690  0  .  1
   O  O45  1  0.905411  0.553693  0.133811  0  .  1
   O  O46  1  0.897398  0.957744  0.392310  0  .  1
   O  O47  1  0.684230  0.006981  0.910057  0  .  1
   O  O48  1  0.042856  0.349973  0.571170  0  .  1
 
