#\#CIF1.1
##########################################################################
#               Crystallographic Information Format file 
#               Produced by PyCifRW module
# 
#  This is a CIF file.  CIF has been adopted by the International
#  Union of Crystallography as the standard for data archiving and 
#  transmission.
#
#  For information on this file format, follow the CIF links at
#  http://www.iucr.org
##########################################################################

data_Na5FeS4
_symmetry_space_group_name_H-M          'P 1'
_cell_length_a                          7.13707023
_cell_length_b                          12.01690308
_cell_length_c                          21.62577748
_cell_angle_alpha                       90.0
_cell_angle_beta                        90.0
_cell_angle_gamma                       90.0
_chemical_name_systematic               'Generated by pymatgen'
_symmetry_Int_Tables_number             1
_chemical_formula_structural            Na5FeS4
_chemical_formula_sum                   'Na40 Fe8 S32'
_cell_volume                            1854.74521252
_cell_formula_units_Z                   8
loop_
  _symmetry_equiv_pos_site_id
  _symmetry_equiv_pos_as_xyz
   1  'x, y, z'
 
loop_
  _atom_site_type_symbol
  _atom_site_label
  _atom_site_symmetry_multiplicity
  _atom_site_fract_x
  _atom_site_fract_y
  _atom_site_fract_z
  _atom_site_attached_hydrogens
  _atom_site_B_iso_or_equiv
  _atom_site_occupancy
   Na  Na1  1  0.049201  0.285983  0.133630  0  .  1
   Na  Na2  1  0.105262  0.160498  0.830392  0  .  1
   Na  Na3  1  0.376813  0.410082  0.250651  0  .  1
   Na  Na4  1  0.394738  0.160498  0.330392  0  .  1
   Na  Na5  1  0.558918  0.942736  0.067392  0  .  1
   Na  Na6  1  0.908926  0.146611  0.998965  0  .  1
   Na  Na7  1  0.591074  0.146611  0.498965  0  .  1
   Na  Na8  1  0.091074  0.853389  0.001035  0  .  1
   Na  Na9  1  0.950799  0.714017  0.866370  0  .  1
   Na  Na10  1  0.894738  0.339502  0.330392  0  .  1
   Na  Na11  1  0.441082  0.057264  0.932608  0  .  1
   Na  Na12  1  0.950799  0.214017  0.633630  0  .  1
   Na  Na13  1  0.558918  0.442736  0.432608  0  .  1
   Na  Na14  1  0.876813  0.089918  0.250651  0  .  1
   Na  Na15  1  0.058918  0.057264  0.432608  0  .  1
   Na  Na16  1  0.441082  0.557264  0.567392  0  .  1
   Na  Na17  1  0.394738  0.660498  0.169608  0  .  1
   Na  Na18  1  0.450799  0.285983  0.633630  0  .  1
   Na  Na19  1  0.123187  0.910082  0.749349  0  .  1
   Na  Na20  1  0.941082  0.442736  0.932608  0  .  1
   Na  Na21  1  0.549201  0.714017  0.366370  0  .  1
   Na  Na22  1  0.591074  0.646611  0.001035  0  .  1
   Na  Na23  1  0.105262  0.660498  0.669608  0  .  1
   Na  Na24  1  0.549201  0.214017  0.133630  0  .  1
   Na  Na25  1  0.876813  0.589918  0.249349  0  .  1
   Na  Na26  1  0.623187  0.589918  0.749349  0  .  1
   Na  Na27  1  0.894738  0.839502  0.169608  0  .  1
   Na  Na28  1  0.376813  0.910082  0.249349  0  .  1
   Na  Na29  1  0.058918  0.557264  0.067392  0  .  1
   Na  Na30  1  0.408926  0.353389  0.998965  0  .  1
   Na  Na31  1  0.049201  0.785983  0.366370  0  .  1
   Na  Na32  1  0.091074  0.353389  0.498965  0  .  1
   Na  Na33  1  0.908926  0.646611  0.501035  0  .  1
   Na  Na34  1  0.123187  0.410082  0.750651  0  .  1
   Na  Na35  1  0.408926  0.853389  0.501035  0  .  1
   Na  Na36  1  0.623187  0.089918  0.750651  0  .  1
   Na  Na37  1  0.450799  0.785983  0.866370  0  .  1
   Na  Na38  1  0.605262  0.339502  0.830392  0  .  1
   Na  Na39  1  0.941082  0.942736  0.567392  0  .  1
   Na  Na40  1  0.605262  0.839502  0.669608  0  .  1
   Fe  Fe41  1  0.332146  0.540549  0.874521  0  .  1
   Fe  Fe42  1  0.332146  0.040549  0.625479  0  .  1
   Fe  Fe43  1  0.167854  0.040549  0.125479  0  .  1
   Fe  Fe44  1  0.667854  0.459451  0.125479  0  .  1
   Fe  Fe45  1  0.167854  0.540549  0.374521  0  .  1
   Fe  Fe46  1  0.832146  0.959451  0.874521  0  .  1
   Fe  Fe47  1  0.832146  0.459451  0.625479  0  .  1
   Fe  Fe48  1  0.667854  0.959451  0.374521  0  .  1
   S  S49  1  0.793628  0.869957  0.458081  0  .  1
   S  S50  1  0.246927  0.356122  0.875197  0  .  1
   S  S51  1  0.746927  0.643878  0.624803  0  .  1
   S  S52  1  0.740674  0.868471  0.786780  0  .  1
   S  S53  1  0.753073  0.643878  0.124803  0  .  1
   S  S54  1  0.651423  0.055593  0.620742  0  .  1
   S  S55  1  0.240674  0.131529  0.713220  0  .  1
   S  S56  1  0.206372  0.130043  0.541919  0  .  1
   S  S57  1  0.293628  0.630043  0.458081  0  .  1
   S  S58  1  0.793628  0.369957  0.041919  0  .  1
   S  S59  1  0.151423  0.944407  0.879258  0  .  1
   S  S60  1  0.651423  0.555593  0.879258  0  .  1
   S  S61  1  0.293628  0.130043  0.041919  0  .  1
   S  S62  1  0.246927  0.856122  0.624803  0  .  1
   S  S63  1  0.848577  0.055593  0.120742  0  .  1
   S  S64  1  0.759326  0.868471  0.286780  0  .  1
   S  S65  1  0.348577  0.444407  0.120742  0  .  1
   S  S66  1  0.753073  0.143878  0.375197  0  .  1
   S  S67  1  0.706372  0.369957  0.541919  0  .  1
   S  S68  1  0.151423  0.444407  0.620742  0  .  1
   S  S69  1  0.240674  0.631529  0.786780  0  .  1
   S  S70  1  0.848577  0.555593  0.379258  0  .  1
   S  S71  1  0.253073  0.856122  0.124803  0  .  1
   S  S72  1  0.259326  0.631529  0.286780  0  .  1
   S  S73  1  0.746927  0.143878  0.875197  0  .  1
   S  S74  1  0.706372  0.869957  0.958081  0  .  1
   S  S75  1  0.348577  0.944407  0.379258  0  .  1
   S  S76  1  0.740674  0.368471  0.713220  0  .  1
   S  S77  1  0.259326  0.131529  0.213220  0  .  1
   S  S78  1  0.253073  0.356122  0.375197  0  .  1
   S  S79  1  0.759326  0.368471  0.213220  0  .  1
   S  S80  1  0.206372  0.630043  0.958081  0  .  1
 
