#\#CIF1.1
##########################################################################
#               Crystallographic Information Format file 
#               Produced by PyCifRW module
# 
#  This is a CIF file.  CIF has been adopted by the International
#  Union of Crystallography as the standard for data archiving and 
#  transmission.
#
#  For information on this file format, follow the CIF links at
#  http://www.iucr.org
##########################################################################

data_Na5FeO4
_symmetry_space_group_name_H-M          'P 1'
_cell_length_a                          6.03403806
_cell_length_b                          10.5251948
_cell_length_c                          18.20393688
_cell_angle_alpha                       90.0
_cell_angle_beta                        90.0
_cell_angle_gamma                       90.0
_chemical_name_systematic               'Generated by pymatgen'
_symmetry_Int_Tables_number             1
_chemical_formula_structural            Na5FeO4
_chemical_formula_sum                   'Na40 Fe8 O32'
_cell_volume                            1156.12158241
_cell_formula_units_Z                   8
loop_
  _symmetry_equiv_pos_site_id
  _symmetry_equiv_pos_as_xyz
   1  'x, y, z'
 
loop_
  _atom_site_type_symbol
  _atom_site_label
  _atom_site_symmetry_multiplicity
  _atom_site_fract_x
  _atom_site_fract_y
  _atom_site_fract_z
  _atom_site_attached_hydrogens
  _atom_site_B_iso_or_equiv
  _atom_site_occupancy
   O  O1  1  0.857201  0.048860  0.121226  0  .  1
   O  O2  1  0.357201  0.951139  0.378774  0  .  1
   O  O3  1  0.642801  0.548860  0.878774  0  .  1
   O  O4  1  0.142801  0.451139  0.621226  0  .  1
   O  O5  1  0.142801  0.951139  0.878774  0  .  1
   O  O6  1  0.642801  0.048860  0.621226  0  .  1
   O  O7  1  0.357201  0.451139  0.121226  0  .  1
   O  O8  1  0.857201  0.548860  0.378774  0  .  1
   O  O9  1  0.802225  0.367362  0.044616  0  .  1
   O  O10  1  0.302225  0.632638  0.455383  0  .  1
   O  O11  1  0.697775  0.867362  0.955383  0  .  1
   O  O12  1  0.197775  0.132638  0.544616  0  .  1
   O  O13  1  0.197775  0.632638  0.955383  0  .  1
   O  O14  1  0.697775  0.367362  0.544616  0  .  1
   O  O15  1  0.302225  0.132638  0.044616  0  .  1
   O  O16  1  0.802225  0.867362  0.455383  0  .  1
   O  O17  1  0.736306  0.373761  0.712004  0  .  1
   O  O18  1  0.236306  0.626239  0.787996  0  .  1
   O  O19  1  0.763694  0.873761  0.287996  0  .  1
   O  O20  1  0.263694  0.126239  0.212003  0  .  1
   O  O21  1  0.263694  0.626239  0.287996  0  .  1
   O  O22  1  0.763694  0.373761  0.212003  0  .  1
   O  O23  1  0.236306  0.126239  0.712004  0  .  1
   O  O24  1  0.736306  0.873761  0.787996  0  .  1
   O  O25  1  0.737879  0.135437  0.874592  0  .  1
   O  O26  1  0.237880  0.864563  0.625408  0  .  1
   O  O27  1  0.762120  0.635437  0.125408  0  .  1
   O  O28  1  0.262120  0.364563  0.374592  0  .  1
   O  O29  1  0.262120  0.864563  0.125408  0  .  1
   O  O30  1  0.762120  0.135437  0.374592  0  .  1
   O  O31  1  0.237880  0.364563  0.874592  0  .  1
   O  O32  1  0.737879  0.635437  0.625408  0  .  1
   Na  Na33  1  0.102238  0.421440  0.752143  0  .  1
   Na  Na34  1  0.426648  0.300525  0.640374  0  .  1
   Na  Na35  1  0.573352  0.199475  0.140374  0  .  1
   Na  Na36  1  0.073352  0.800525  0.359626  0  .  1
   Na  Na37  1  0.073352  0.300525  0.140374  0  .  1
   Na  Na38  1  0.573352  0.699475  0.359626  0  .  1
   Na  Na39  1  0.426648  0.800525  0.859627  0  .  1
   Na  Na40  1  0.926648  0.199475  0.640374  0  .  1
   Na  Na41  1  0.895767  0.826249  0.171425  0  .  1
   Na  Na42  1  0.395767  0.173752  0.328575  0  .  1
   Na  Na43  1  0.604232  0.326248  0.828575  0  .  1
   Na  Na44  1  0.104232  0.673752  0.671425  0  .  1
   Na  Na45  1  0.104232  0.173752  0.828575  0  .  1
   Na  Na46  1  0.604232  0.826249  0.671425  0  .  1
   Na  Na47  1  0.395767  0.673752  0.171425  0  .  1
   Na  Na48  1  0.895767  0.326248  0.328575  0  .  1
   Na  Na49  1  0.909330  0.163598  0.001845  0  .  1
   Na  Na50  1  0.409330  0.836402  0.498155  0  .  1
   Na  Na51  1  0.590670  0.663597  0.998155  0  .  1
   Na  Na52  1  0.090670  0.336402  0.501845  0  .  1
   Na  Na53  1  0.090670  0.836402  0.998155  0  .  1
   Na  Na54  1  0.590670  0.163598  0.501845  0  .  1
   Na  Na55  1  0.409330  0.336402  0.001845  0  .  1
   Na  Na56  1  0.909330  0.663597  0.498155  0  .  1
   Na  Na57  1  0.918233  0.939296  0.565212  0  .  1
   Na  Na58  1  0.397762  0.921440  0.247857  0  .  1
   Na  Na59  1  0.602238  0.578560  0.747857  0  .  1
   Na  Na60  1  0.926648  0.699475  0.859627  0  .  1
   Na  Na61  1  0.102238  0.921440  0.747857  0  .  1
   Na  Na62  1  0.602238  0.078560  0.752143  0  .  1
   Na  Na63  1  0.397762  0.421440  0.252144  0  .  1
   Na  Na64  1  0.897762  0.578560  0.247857  0  .  1
   Na  Na65  1  0.918233  0.439296  0.934787  0  .  1
   Na  Na66  1  0.418233  0.560703  0.565212  0  .  1
   Na  Na67  1  0.581767  0.939296  0.065213  0  .  1
   Na  Na68  1  0.081767  0.060704  0.434787  0  .  1
   Na  Na69  1  0.081767  0.560703  0.065213  0  .  1
   Na  Na70  1  0.581767  0.439296  0.434787  0  .  1
   Na  Na71  1  0.418233  0.060704  0.934787  0  .  1
   Na  Na72  1  0.897762  0.078560  0.252144  0  .  1
   Fe  Fe73  1  0.828322  0.459680  0.623367  0  .  1
   Fe  Fe74  1  0.328322  0.540320  0.876632  0  .  1
   Fe  Fe75  1  0.671678  0.959680  0.376632  0  .  1
   Fe  Fe76  1  0.171678  0.040320  0.123368  0  .  1
   Fe  Fe77  1  0.171678  0.540320  0.376632  0  .  1
   Fe  Fe78  1  0.671678  0.459680  0.123368  0  .  1
   Fe  Fe79  1  0.328322  0.040320  0.623367  0  .  1
   Fe  Fe80  1  0.828322  0.959680  0.876632  0  .  1
 
