#\#CIF1.1
##########################################################################
#               Crystallographic Information Format file 
#               Produced by PyCifRW module
# 
#  This is a CIF file.  CIF has been adopted by the International
#  Union of Crystallography as the standard for data archiving and 
#  transmission.
#
#  For information on this file format, follow the CIF links at
#  http://www.iucr.org
##########################################################################

data_Na5MnO4
_symmetry_space_group_name_H-M          'P 1'
_cell_length_a                          5.88600208
_cell_length_b                          6.07252073
_cell_length_c                          7.88226794
_cell_angle_alpha                       90.0
_cell_angle_beta                        90.0
_cell_angle_gamma                       90.0
_chemical_name_systematic               'Generated by pymatgen'
_symmetry_Int_Tables_number             1
_chemical_formula_structural            Na5MnO4
_chemical_formula_sum                   'Na10 Mn2 O8'
_cell_volume                            281.734875507
_cell_formula_units_Z                   2
loop_
  _symmetry_equiv_pos_site_id
  _symmetry_equiv_pos_as_xyz
   1  'x, y, z'
 
loop_
  _atom_site_type_symbol
  _atom_site_label
  _atom_site_symmetry_multiplicity
  _atom_site_fract_x
  _atom_site_fract_y
  _atom_site_fract_z
  _atom_site_attached_hydrogens
  _atom_site_B_iso_or_equiv
  _atom_site_occupancy
   O  O1  1  0.594756  0.258080  0.274897  0  .  1
   O  O2  1  0.614985  0.873192  0.500000  0  .  1
   O  O3  1  0.114985  0.126808  0.000000  0  .  1
   O  O4  1  0.188601  0.284682  0.500000  0  .  1
   O  O5  1  0.688601  0.715318  0.000000  0  .  1
   O  O6  1  0.094756  0.741920  0.225103  0  .  1
   O  O7  1  0.094756  0.741920  0.774897  0  .  1
   O  O8  1  0.594756  0.258080  0.725103  0  .  1
   Na  Na9  1  0.747193  0.607070  0.301170  0  .  1
   Na  Na10  1  0.238618  0.677617  0.500000  0  .  1
   Na  Na11  1  0.435681  0.928580  0.821134  0  .  1
   Na  Na12  1  0.247193  0.392930  0.801170  0  .  1
   Na  Na13  1  0.747193  0.607070  0.698830  0  .  1
   Na  Na14  1  0.435681  0.928580  0.178866  0  .  1
   Na  Na15  1  0.935681  0.071420  0.321134  0  .  1
   Na  Na16  1  0.935681  0.071420  0.678866  0  .  1
   Na  Na17  1  0.738618  0.322383  0.000000  0  .  1
   Na  Na18  1  0.247193  0.392930  0.198830  0  .  1
   Mn  Mn19  1  0.495136  0.173082  0.500000  0  .  1
   Mn  Mn20  1  0.995136  0.826918  0.000000  0  .  1
 
