#\#CIF1.1
##########################################################################
#               Crystallographic Information Format file 
#               Produced by PyCifRW module
# 
#  This is a CIF file.  CIF has been adopted by the International
#  Union of Crystallography as the standard for data archiving and 
#  transmission.
#
#  For information on this file format, follow the CIF links at
#  http://www.iucr.org
##########################################################################

data_Na5Mn2O8
_symmetry_space_group_name_H-M          'P 1'
_cell_length_a                          10.63065432
_cell_length_b                          15.13637482
_cell_length_c                          10.48284117
_cell_angle_alpha                       90.0
_cell_angle_beta                        90.0
_cell_angle_gamma                       90.0
_chemical_name_systematic               'Generated by pymatgen'
_symmetry_Int_Tables_number             1
_chemical_formula_structural            Na5Mn2O8
_chemical_formula_sum                   'Na40 Mn16 O64'
_cell_volume                            1686.78944795
_cell_formula_units_Z                   8
loop_
  _symmetry_equiv_pos_site_id
  _symmetry_equiv_pos_as_xyz
   1  'x, y, z'
 
loop_
  _atom_site_type_symbol
  _atom_site_label
  _atom_site_symmetry_multiplicity
  _atom_site_fract_x
  _atom_site_fract_y
  _atom_site_fract_z
  _atom_site_attached_hydrogens
  _atom_site_B_iso_or_equiv
  _atom_site_occupancy
   Na  Na1  1  0.003525  0.503698  0.796401  0  .  1
   Na  Na2  1  0.003525  0.996302  0.796401  0  .  1
   Na  Na3  1  0.010576  0.112766  0.520144  0  .  1
   Na  Na4  1  0.010576  0.387234  0.520144  0  .  1
   Na  Na5  1  0.184409  0.750000  0.993904  0  .  1
   Na  Na6  1  0.245011  0.750000  0.565184  0  .  1
   Na  Na7  1  0.242181  0.637950  0.280439  0  .  1
   Na  Na8  1  0.242181  0.862050  0.280439  0  .  1
   Na  Na9  1  0.244046  0.603343  0.758354  0  .  1
   Na  Na10  1  0.244046  0.896657  0.758354  0  .  1
   Na  Na11  1  0.255954  0.103343  0.258354  0  .  1
   Na  Na12  1  0.255954  0.396657  0.258354  0  .  1
   Na  Na13  1  0.257819  0.137950  0.780439  0  .  1
   Na  Na14  1  0.257819  0.362050  0.780439  0  .  1
   Na  Na15  1  0.254989  0.250000  0.065184  0  .  1
   Na  Na16  1  0.315591  0.250000  0.493904  0  .  1
   Na  Na17  1  0.489424  0.612766  0.020144  0  .  1
   Na  Na18  1  0.489424  0.887234  0.020144  0  .  1
   Na  Na19  1  0.496475  0.003698  0.296401  0  .  1
   Na  Na20  1  0.496475  0.496302  0.296401  0  .  1
   Na  Na21  1  0.503525  0.503698  0.703599  0  .  1
   Na  Na22  1  0.503525  0.996302  0.703599  0  .  1
   Na  Na23  1  0.510576  0.112766  0.979856  0  .  1
   Na  Na24  1  0.510576  0.387234  0.979856  0  .  1
   Na  Na25  1  0.684409  0.750000  0.506096  0  .  1
   Na  Na26  1  0.745011  0.750000  0.934816  0  .  1
   Na  Na27  1  0.742181  0.637950  0.219561  0  .  1
   Na  Na28  1  0.742181  0.862050  0.219561  0  .  1
   Na  Na29  1  0.744046  0.603343  0.741646  0  .  1
   Na  Na30  1  0.744046  0.896657  0.741646  0  .  1
   Na  Na31  1  0.755954  0.103343  0.241646  0  .  1
   Na  Na32  1  0.755954  0.396657  0.241646  0  .  1
   Na  Na33  1  0.757819  0.137950  0.719561  0  .  1
   Na  Na34  1  0.757819  0.362050  0.719561  0  .  1
   Na  Na35  1  0.754989  0.250000  0.434816  0  .  1
   Na  Na36  1  0.815591  0.250000  0.006096  0  .  1
   Na  Na37  1  0.989424  0.612766  0.479856  0  .  1
   Na  Na38  1  0.989424  0.887234  0.479856  0  .  1
   Na  Na39  1  0.996475  0.003698  0.203599  0  .  1
   Na  Na40  1  0.996475  0.496302  0.203599  0  .  1
   Mn  Mn41  1  0.005084  0.250000  0.725998  0  .  1
   Mn  Mn42  1  0.022620  0.250000  0.257266  0  .  1
   Mn  Mn43  1  0.252919  0.001043  0.006746  0  .  1
   Mn  Mn44  1  0.252919  0.498957  0.006746  0  .  1
   Mn  Mn45  1  0.247081  0.501043  0.506746  0  .  1
   Mn  Mn46  1  0.247081  0.998957  0.506746  0  .  1
   Mn  Mn47  1  0.477380  0.750000  0.757266  0  .  1
   Mn  Mn48  1  0.494916  0.750000  0.225998  0  .  1
   Mn  Mn49  1  0.505084  0.250000  0.774002  0  .  1
   Mn  Mn50  1  0.522620  0.250000  0.242734  0  .  1
   Mn  Mn51  1  0.752919  0.001043  0.493254  0  .  1
   Mn  Mn52  1  0.752919  0.498957  0.493254  0  .  1
   Mn  Mn53  1  0.747081  0.501043  0.993254  0  .  1
   Mn  Mn54  1  0.747081  0.998957  0.993254  0  .  1
   Mn  Mn55  1  0.977380  0.750000  0.742734  0  .  1
   Mn  Mn56  1  0.994916  0.750000  0.274002  0  .  1
   O  O57  1  0.008619  0.250000  0.101975  0  .  1
   O  O58  1  0.014080  0.657126  0.191216  0  .  1
   O  O59  1  0.014080  0.842874  0.191216  0  .  1
   O  O60  1  0.045926  0.658724  0.683285  0  .  1
   O  O61  1  0.045926  0.841276  0.683285  0  .  1
   O  O62  1  0.110456  0.750000  0.389472  0  .  1
   O  O63  1  0.144693  0.570685  0.952428  0  .  1
   O  O64  1  0.144693  0.929315  0.952428  0  .  1
   O  O65  1  0.135806  0.511521  0.387481  0  .  1
   O  O66  1  0.135806  0.988479  0.387481  0  .  1
   O  O67  1  0.148293  0.250000  0.650419  0  .  1
   O  O68  1  0.172360  0.035437  0.641260  0  .  1
   O  O69  1  0.172360  0.464563  0.641260  0  .  1
   O  O70  1  0.179632  0.250000  0.294213  0  .  1
   O  O71  1  0.189357  0.100036  0.039972  0  .  1
   O  O72  1  0.189357  0.399964  0.039972  0  .  1
   O  O73  1  0.310643  0.600036  0.539972  0  .  1
   O  O74  1  0.310643  0.899964  0.539972  0  .  1
   O  O75  1  0.320368  0.750000  0.794213  0  .  1
   O  O76  1  0.327640  0.535437  0.141260  0  .  1
   O  O77  1  0.327640  0.964563  0.141260  0  .  1
   O  O78  1  0.351707  0.750000  0.150419  0  .  1
   O  O79  1  0.364194  0.011521  0.887481  0  .  1
   O  O80  1  0.364194  0.488479  0.887481  0  .  1
   O  O81  1  0.355307  0.070685  0.452428  0  .  1
   O  O82  1  0.355307  0.429315  0.452428  0  .  1
   O  O83  1  0.389544  0.250000  0.889472  0  .  1
   O  O84  1  0.454074  0.158724  0.183285  0  .  1
   O  O85  1  0.454074  0.341276  0.183285  0  .  1
   O  O86  1  0.485920  0.157126  0.691216  0  .  1
   O  O87  1  0.485920  0.342874  0.691216  0  .  1
   O  O88  1  0.491381  0.750000  0.601975  0  .  1
   O  O89  1  0.508619  0.250000  0.398025  0  .  1
   O  O90  1  0.514080  0.657126  0.308784  0  .  1
   O  O91  1  0.514080  0.842874  0.308784  0  .  1
   O  O92  1  0.545926  0.658724  0.816715  0  .  1
   O  O93  1  0.545926  0.841276  0.816715  0  .  1
   O  O94  1  0.610456  0.750000  0.110528  0  .  1
   O  O95  1  0.644693  0.570685  0.547572  0  .  1
   O  O96  1  0.644693  0.929315  0.547572  0  .  1
   O  O97  1  0.635806  0.511521  0.112519  0  .  1
   O  O98  1  0.635806  0.988479  0.112519  0  .  1
   O  O99  1  0.648293  0.250000  0.849581  0  .  1
   O  O100  1  0.672360  0.035437  0.858740  0  .  1
   O  O101  1  0.672360  0.464563  0.858740  0  .  1
   O  O102  1  0.679632  0.250000  0.205787  0  .  1
   O  O103  1  0.689357  0.100036  0.460028  0  .  1
   O  O104  1  0.689357  0.399964  0.460028  0  .  1
   O  O105  1  0.810643  0.600036  0.960028  0  .  1
   O  O106  1  0.810643  0.899964  0.960028  0  .  1
   O  O107  1  0.820368  0.750000  0.705787  0  .  1
   O  O108  1  0.827640  0.535437  0.358740  0  .  1
   O  O109  1  0.827640  0.964563  0.358740  0  .  1
   O  O110  1  0.851707  0.750000  0.349581  0  .  1
   O  O111  1  0.864194  0.011521  0.612519  0  .  1
   O  O112  1  0.864194  0.488479  0.612519  0  .  1
   O  O113  1  0.855307  0.070685  0.047572  0  .  1
   O  O114  1  0.855307  0.429315  0.047572  0  .  1
   O  O115  1  0.889544  0.250000  0.610528  0  .  1
   O  O116  1  0.954074  0.158724  0.316715  0  .  1
   O  O117  1  0.954074  0.341276  0.316715  0  .  1
   O  O118  1  0.985920  0.157126  0.808784  0  .  1
   O  O119  1  0.985920  0.342874  0.808784  0  .  1
   O  O120  1  0.991381  0.750000  0.898025  0  .  1
 
