#\#CIF1.1
##########################################################################
#               Crystallographic Information Format file 
#               Produced by PyCifRW module
# 
#  This is a CIF file.  CIF has been adopted by the International
#  Union of Crystallography as the standard for data archiving and 
#  transmission.
#
#  For information on this file format, follow the CIF links at
#  http://www.iucr.org
##########################################################################

data_Na5NiO4
_symmetry_space_group_name_H-M          'P 1'
_cell_length_a                          5.98263538
_cell_length_b                          10.34112753
_cell_length_c                          18.05970872
_cell_angle_alpha                       90.0
_cell_angle_beta                        90.0
_cell_angle_gamma                       90.0
_chemical_name_systematic               'Generated by pymatgen'
_symmetry_Int_Tables_number             1
_chemical_formula_structural            Na5NiO4
_chemical_formula_sum                   'Na40 Ni8 O32'
_cell_volume                            1117.30352879
_cell_formula_units_Z                   8
loop_
  _symmetry_equiv_pos_site_id
  _symmetry_equiv_pos_as_xyz
   1  'x, y, z'
 
loop_
  _atom_site_type_symbol
  _atom_site_label
  _atom_site_symmetry_multiplicity
  _atom_site_fract_x
  _atom_site_fract_y
  _atom_site_fract_z
  _atom_site_attached_hydrogens
  _atom_site_B_iso_or_equiv
  _atom_site_occupancy
   O  O1  1  0.863369  0.047887  0.120453  0  .  1
   O  O2  1  0.363369  0.952113  0.379547  0  .  1
   O  O3  1  0.636631  0.547887  0.879547  0  .  1
   O  O4  1  0.136631  0.452113  0.620453  0  .  1
   O  O5  1  0.136631  0.952113  0.879547  0  .  1
   O  O6  1  0.636631  0.047887  0.620453  0  .  1
   O  O7  1  0.363369  0.452113  0.120453  0  .  1
   O  O8  1  0.863369  0.547887  0.379547  0  .  1
   O  O9  1  0.803694  0.368905  0.045753  0  .  1
   O  O10  1  0.303694  0.631094  0.454247  0  .  1
   O  O11  1  0.696305  0.868905  0.954247  0  .  1
   O  O12  1  0.196305  0.131094  0.545752  0  .  1
   O  O13  1  0.196305  0.631094  0.954247  0  .  1
   O  O14  1  0.696305  0.368905  0.545752  0  .  1
   O  O15  1  0.303694  0.131094  0.045753  0  .  1
   O  O16  1  0.803694  0.868905  0.454247  0  .  1
   O  O17  1  0.735529  0.373555  0.711562  0  .  1
   O  O18  1  0.235529  0.626444  0.788438  0  .  1
   O  O19  1  0.764471  0.873556  0.288438  0  .  1
   O  O20  1  0.264471  0.126444  0.211562  0  .  1
   O  O21  1  0.264471  0.626444  0.288438  0  .  1
   O  O22  1  0.764471  0.373555  0.211562  0  .  1
   O  O23  1  0.235529  0.126444  0.711562  0  .  1
   O  O24  1  0.735529  0.873556  0.788438  0  .  1
   O  O25  1  0.737701  0.136322  0.874446  0  .  1
   O  O26  1  0.237701  0.863678  0.625554  0  .  1
   O  O27  1  0.762299  0.636321  0.125555  0  .  1
   O  O28  1  0.262299  0.363678  0.374446  0  .  1
   O  O29  1  0.262299  0.863678  0.125555  0  .  1
   O  O30  1  0.762299  0.136322  0.374446  0  .  1
   O  O31  1  0.237701  0.363678  0.874446  0  .  1
   O  O32  1  0.737701  0.636321  0.625554  0  .  1
   Na  Na33  1  0.104723  0.419534  0.751270  0  .  1
   Na  Na34  1  0.426980  0.297819  0.638658  0  .  1
   Na  Na35  1  0.573020  0.202180  0.138658  0  .  1
   Na  Na36  1  0.073020  0.797819  0.361342  0  .  1
   Na  Na37  1  0.073020  0.297819  0.138658  0  .  1
   Na  Na38  1  0.573020  0.702180  0.361342  0  .  1
   Na  Na39  1  0.426980  0.797819  0.861342  0  .  1
   Na  Na40  1  0.926980  0.202180  0.638658  0  .  1
   Na  Na41  1  0.898250  0.828550  0.171468  0  .  1
   Na  Na42  1  0.398250  0.171450  0.328532  0  .  1
   Na  Na43  1  0.601750  0.328550  0.828532  0  .  1
   Na  Na44  1  0.101750  0.671449  0.671468  0  .  1
   Na  Na45  1  0.101750  0.171450  0.828532  0  .  1
   Na  Na46  1  0.601750  0.828550  0.671468  0  .  1
   Na  Na47  1  0.398250  0.671449  0.171468  0  .  1
   Na  Na48  1  0.898250  0.328550  0.328532  0  .  1
   Na  Na49  1  0.914260  0.158208  0.001524  0  .  1
   Na  Na50  1  0.414260  0.841792  0.498477  0  .  1
   Na  Na51  1  0.585740  0.658208  0.998477  0  .  1
   Na  Na52  1  0.085740  0.341792  0.501523  0  .  1
   Na  Na53  1  0.085740  0.841792  0.998477  0  .  1
   Na  Na54  1  0.585740  0.158208  0.501523  0  .  1
   Na  Na55  1  0.414260  0.341792  0.001524  0  .  1
   Na  Na56  1  0.914260  0.658208  0.498477  0  .  1
   Na  Na57  1  0.920914  0.939150  0.565559  0  .  1
   Na  Na58  1  0.395277  0.919534  0.248729  0  .  1
   Na  Na59  1  0.604723  0.580466  0.748730  0  .  1
   Na  Na60  1  0.926980  0.702180  0.861342  0  .  1
   Na  Na61  1  0.104723  0.919534  0.748730  0  .  1
   Na  Na62  1  0.604723  0.080466  0.751270  0  .  1
   Na  Na63  1  0.395277  0.419534  0.251271  0  .  1
   Na  Na64  1  0.895277  0.580466  0.248729  0  .  1
   Na  Na65  1  0.920914  0.439150  0.934441  0  .  1
   Na  Na66  1  0.420914  0.560850  0.565559  0  .  1
   Na  Na67  1  0.579086  0.939150  0.065559  0  .  1
   Na  Na68  1  0.079086  0.060850  0.434441  0  .  1
   Na  Na69  1  0.079086  0.560850  0.065559  0  .  1
   Na  Na70  1  0.579086  0.439150  0.434441  0  .  1
   Na  Na71  1  0.420914  0.060850  0.934441  0  .  1
   Na  Na72  1  0.895277  0.080466  0.251271  0  .  1
   Ni  Ni73  1  0.824844  0.460546  0.624110  0  .  1
   Ni  Ni74  1  0.324844  0.539454  0.875891  0  .  1
   Ni  Ni75  1  0.675156  0.960546  0.375891  0  .  1
   Ni  Ni76  1  0.175156  0.039454  0.124109  0  .  1
   Ni  Ni77  1  0.175156  0.539454  0.375891  0  .  1
   Ni  Ni78  1  0.675156  0.460546  0.124109  0  .  1
   Ni  Ni79  1  0.324844  0.039454  0.624110  0  .  1
   Ni  Ni80  1  0.824844  0.960546  0.875891  0  .  1
 
