#\#CIF1.1
##########################################################################
#               Crystallographic Information Format file 
#               Produced by PyCifRW module
# 
#  This is a CIF file.  CIF has been adopted by the International
#  Union of Crystallography as the standard for data archiving and 
#  transmission.
#
#  For information on this file format, follow the CIF links at
#  http://www.iucr.org
##########################################################################

data_Na5Ni9O16
_symmetry_space_group_name_H-M          'P 1'
_cell_length_a                          5.47303110853
_cell_length_b                          11.5923453377
_cell_length_c                          5.17342319222
_cell_angle_alpha                       90.0000001522
_cell_angle_beta                        70.9419771034
_cell_angle_gamma                       89.9999966755
_chemical_name_systematic               'Generated by pymatgen'
_symmetry_Int_Tables_number             1
_chemical_formula_structural            Na5Ni9O16
_chemical_formula_sum                   'Na5 Ni9 O16'
_cell_volume                            310.238442612
_cell_formula_units_Z                   1
loop_
  _symmetry_equiv_pos_site_id
  _symmetry_equiv_pos_as_xyz
   1  'x, y, z'
 
loop_
  _atom_site_type_symbol
  _atom_site_label
  _atom_site_symmetry_multiplicity
  _atom_site_fract_x
  _atom_site_fract_y
  _atom_site_fract_z
  _atom_site_attached_hydrogens
  _atom_site_B_iso_or_equiv
  _atom_site_occupancy
   Na  Na1  1  0.500000  0.118690  0.000000  0  .  1
   Na  Na2  1  0.500000  0.375000  0.000000  0  .  1
   Na  Na3  1  0.500000  0.631310  0.000000  0  .  1
   Na  Na4  1  0.500000  0.239373  0.500000  0  .  1
   Na  Na5  1  0.500000  0.510627  0.500000  0  .  1
   Ni  Ni6  1  0.000000  0.249480  0.000000  0  .  1
   Ni  Ni7  1  0.000000  0.753934  1.000000  0  .  1
   Ni  Ni8  1  1.000000  0.500520  0.000000  0  .  1
   Ni  Ni9  1  0.000000  0.996066  0.000000  0  .  1
   Ni  Ni10  1  0.000000  0.627085  0.500000  0  .  1
   Ni  Ni11  1  0.000000  0.875000  0.500000  0  .  1
   Ni  Ni12  1  0.000000  0.122915  0.500000  0  .  1
   Ni  Ni13  1  0.000000  0.375000  0.500000  0  .  1
   Ni  Ni14  1  0.500000  0.875000  0.000000  0  .  1
   O  O15  1  0.199425  0.496053  0.267635  0  .  1
   O  O16  1  0.199425  0.253947  0.267635  0  .  1
   O  O17  1  0.198644  0.760833  0.241315  0  .  1
   O  O18  1  0.198644  0.989167  0.241315  0  .  1
   O  O19  1  0.199478  0.375000  0.780000  0  .  1
   O  O20  1  0.191272  0.121403  0.791286  0  .  1
   O  O21  1  0.208116  0.875000  0.798856  0  .  1
   O  O22  1  0.191272  0.628597  0.791286  0  .  1
   O  O23  1  0.800522  0.375000  0.220000  0  .  1
   O  O24  1  0.808728  0.121403  0.208714  0  .  1
   O  O25  1  0.791884  0.875000  0.201144  0  .  1
   O  O26  1  0.808728  0.628597  0.208714  0  .  1
   O  O27  1  0.801356  0.760833  0.758685  0  .  1
   O  O28  1  0.801356  0.989167  0.758685  0  .  1
   O  O29  1  0.800575  0.496053  0.732365  0  .  1
   O  O30  1  0.800575  0.253947  0.732365  0  .  1
 
