#\#CIF1.1
##########################################################################
#               Crystallographic Information Format file 
#               Produced by PyCifRW module
# 
#  This is a CIF file.  CIF has been adopted by the International
#  Union of Crystallography as the standard for data archiving and 
#  transmission.
#
#  For information on this file format, follow the CIF links at
#  http://www.iucr.org
##########################################################################

data_Na5Ti16O32
_symmetry_space_group_name_H-M          'P 1'
_cell_length_a                          9.63012256061
_cell_length_b                          11.388666493
_cell_length_c                          5.94886067918
_cell_angle_alpha                       90.0402119261
_cell_angle_beta                        89.9362859717
_cell_angle_gamma                       89.4441211765
_chemical_name_systematic               'Generated by pymatgen'
_symmetry_Int_Tables_number             1
_chemical_formula_structural            Na5Ti16O32
_chemical_formula_sum                   'Na5 Ti16 O32'
_cell_volume                            652.405583086
_cell_formula_units_Z                   1
loop_
  _symmetry_equiv_pos_site_id
  _symmetry_equiv_pos_as_xyz
   1  'x, y, z'
 
loop_
  _atom_site_type_symbol
  _atom_site_label
  _atom_site_symmetry_multiplicity
  _atom_site_fract_x
  _atom_site_fract_y
  _atom_site_fract_z
  _atom_site_attached_hydrogens
  _atom_site_B_iso_or_equiv
  _atom_site_occupancy
   Na  Na1  1  0.116660  0.580802  0.373495  0  .  1
   Na  Na2  1  0.394978  0.075816  0.609708  0  .  1
   Na  Na3  1  0.603911  0.923966  0.891494  0  .  1
   Na  Na4  1  0.894376  0.424600  0.118905  0  .  1
   Na  Na5  1  0.894943  0.424700  0.630896  0  .  1
   Ti  Ti6  1  0.019678  0.122811  0.121367  0  .  1
   Ti  Ti7  1  0.016483  0.121498  0.628261  0  .  1
   Ti  Ti8  1  0.238875  0.329620  0.373639  0  .  1
   Ti  Ti9  1  0.231018  0.345018  0.875538  0  .  1
   Ti  Ti10  1  0.270235  0.846125  0.125164  0  .  1
   Ti  Ti11  1  0.261665  0.829581  0.625362  0  .  1
   Ti  Ti12  1  0.480925  0.620290  0.880109  0  .  1
   Ti  Ti13  1  0.486082  0.621481  0.370081  0  .  1
   Ti  Ti14  1  0.514743  0.376458  0.128995  0  .  1
   Ti  Ti15  1  0.516664  0.379250  0.620987  0  .  1
   Ti  Ti16  1  0.738534  0.168557  0.876235  0  .  1
   Ti  Ti17  1  0.731159  0.154524  0.374593  0  .  1
   Ti  Ti18  1  0.763364  0.664955  0.124728  0  .  1
   Ti  Ti19  1  0.762559  0.665472  0.624765  0  .  1
   Ti  Ti20  1  0.980316  0.878528  0.374843  0  .  1
   Ti  Ti21  1  0.986225  0.876635  0.875349  0  .  1
   O  O22  1  0.100370  0.959473  0.125216  0  .  1
   O  O23  1  0.099753  0.959603  0.624799  0  .  1
   O  O24  1  0.126654  0.188636  0.377279  0  .  1
   O  O25  1  0.124981  0.194090  0.872693  0  .  1
   O  O26  1  0.136284  0.772426  0.374230  0  .  1
   O  O27  1  0.139679  0.772281  0.876065  0  .  1
   O  O28  1  0.138432  0.407403  0.131505  0  .  1
   O  O29  1  0.140199  0.407920  0.619385  0  .  1
   O  O30  1  0.350644  0.908878  0.380960  0  .  1
   O  O31  1  0.358353  0.907793  0.867522  0  .  1
   O  O32  1  0.361163  0.272835  0.123037  0  .  1
   O  O33  1  0.362932  0.271843  0.626117  0  .  1
   O  O34  1  0.373796  0.693182  0.128157  0  .  1
   O  O35  1  0.373918  0.688276  0.622297  0  .  1
   O  O36  1  0.396874  0.461368  0.375363  0  .  1
   O  O37  1  0.397624  0.460600  0.874870  0  .  1
   O  O38  1  0.602267  0.538248  0.124350  0  .  1
   O  O39  1  0.601628  0.539017  0.624896  0  .  1
   O  O40  1  0.630520  0.314084  0.875089  0  .  1
   O  O41  1  0.629345  0.308529  0.374283  0  .  1
   O  O42  1  0.639954  0.727356  0.375415  0  .  1
   O  O43  1  0.636182  0.728788  0.874830  0  .  1
   O  O44  1  0.648487  0.092401  0.119033  0  .  1
   O  O45  1  0.643010  0.092994  0.632153  0  .  1
   O  O46  1  0.858541  0.586434  0.374560  0  .  1
   O  O47  1  0.849288  0.585295  0.874949  0  .  1
   O  O48  1  0.863908  0.230661  0.126362  0  .  1
   O  O49  1  0.862042  0.230533  0.624261  0  .  1
   O  O50  1  0.873662  0.808744  0.122546  0  .  1
   O  O51  1  0.874208  0.808457  0.627706  0  .  1
   O  O52  1  0.898687  0.042178  0.374965  0  .  1
   O  O53  1  0.899033  0.041772  0.875592  0  .  1
 
