#\#CIF1.1
##########################################################################
#               Crystallographic Information Format file 
#               Produced by PyCifRW module
# 
#  This is a CIF file.  CIF has been adopted by the International
#  Union of Crystallography as the standard for data archiving and 
#  transmission.
#
#  For information on this file format, follow the CIF links at
#  http://www.iucr.org
##########################################################################

data_Na5Ti12O24
_symmetry_space_group_name_H-M          'P 1'
_cell_length_a                          5.51983243328
_cell_length_b                          9.5317075838
_cell_length_c                          8.97734743
_cell_angle_alpha                       90.0
_cell_angle_beta                        90.0
_cell_angle_gamma                       90.1531511999
_chemical_name_systematic               'Generated by pymatgen'
_symmetry_Int_Tables_number             1
_chemical_formula_structural            Na5Ti12O24
_chemical_formula_sum                   'Na5 Ti12 O24'
_cell_volume                            472.327341246
_cell_formula_units_Z                   1
loop_
  _symmetry_equiv_pos_site_id
  _symmetry_equiv_pos_as_xyz
   1  'x, y, z'
 
loop_
  _atom_site_type_symbol
  _atom_site_label
  _atom_site_symmetry_multiplicity
  _atom_site_fract_x
  _atom_site_fract_y
  _atom_site_fract_z
  _atom_site_attached_hydrogens
  _atom_site_B_iso_or_equiv
  _atom_site_occupancy
   Na  Na1  1  0.456741  0.021861  0.250000  0  .  1
   Na  Na2  1  0.537315  0.975261  0.750000  0  .  1
   Na  Na3  1  0.961167  0.480387  0.750000  0  .  1
   Na  Na4  1  0.954550  0.476952  0.085168  0  .  1
   Na  Na5  1  0.954550  0.476952  0.414832  0  .  1
   Ti  Ti6  1  0.004055  0.851974  0.250000  0  .  1
   Ti  Ti7  1  0.014096  0.854419  0.576737  0  .  1
   Ti  Ti8  1  0.014096  0.854419  0.923263  0  .  1
   Ti  Ti9  1  0.487560  0.352854  0.920587  0  .  1
   Ti  Ti10  1  0.479177  0.354450  0.250000  0  .  1
   Ti  Ti11  1  0.487560  0.352854  0.579413  0  .  1
   Ti  Ti12  1  0.505828  0.648467  0.083831  0  .  1
   Ti  Ti13  1  0.512818  0.642707  0.750000  0  .  1
   Ti  Ti14  1  0.505828  0.648467  0.416169  0  .  1
   Ti  Ti15  1  0.989551  0.144174  0.750000  0  .  1
   Ti  Ti16  1  0.981701  0.136893  0.425136  0  .  1
   Ti  Ti17  1  0.981701  0.136893  0.074864  0  .  1
   O  O18  1  0.178844  0.960929  0.078841  0  .  1
   O  O19  1  0.178844  0.960929  0.421159  0  .  1
   O  O20  1  0.154782  0.960417  0.750000  0  .  1
   O  O21  1  0.185062  0.232370  0.582235  0  .  1
   O  O22  1  0.185062  0.232370  0.917765  0  .  1
   O  O23  1  0.196796  0.227256  0.250000  0  .  1
   O  O24  1  0.300501  0.724545  0.587748  0  .  1
   O  O25  1  0.300501  0.724545  0.912252  0  .  1
   O  O26  1  0.300565  0.728991  0.250000  0  .  1
   O  O27  1  0.333768  0.465933  0.081115  0  .  1
   O  O28  1  0.333768  0.465933  0.418885  0  .  1
   O  O29  1  0.340374  0.458426  0.750000  0  .  1
   O  O30  1  0.675508  0.541564  0.250000  0  .  1
   O  O31  1  0.679447  0.537655  0.582636  0  .  1
   O  O32  1  0.679447  0.537655  0.917364  0  .  1
   O  O33  1  0.698104  0.273454  0.750000  0  .  1
   O  O34  1  0.699963  0.276078  0.085679  0  .  1
   O  O35  1  0.699963  0.276078  0.414321  0  .  1
   O  O36  1  0.804514  0.771089  0.081730  0  .  1
   O  O37  1  0.804514  0.771089  0.418270  0  .  1
   O  O38  1  0.797677  0.773862  0.750000  0  .  1
   O  O39  1  0.816160  0.035416  0.579522  0  .  1
   O  O40  1  0.839486  0.037616  0.250000  0  .  1
   O  O41  1  0.816160  0.035416  0.920478  0  .  1
 
