#\#CIF1.1
##########################################################################
#               Crystallographic Information Format file 
#               Produced by PyCifRW module
# 
#  This is a CIF file.  CIF has been adopted by the International
#  Union of Crystallography as the standard for data archiving and 
#  transmission.
#
#  For information on this file format, follow the CIF links at
#  http://www.iucr.org
##########################################################################

data_Na5V12O32
_symmetry_space_group_name_H-M          'P 1'
_cell_length_a                          7.29658893
_cell_length_b                          8.31898438409
_cell_length_c                          12.376623281
_cell_angle_alpha                       105.928379772
_cell_angle_beta                        90.0
_cell_angle_gamma                       116.011431549
_chemical_name_systematic               'Generated by pymatgen'
_symmetry_Int_Tables_number             1
_chemical_formula_structural            Na5V12O32
_chemical_formula_sum                   'Na5 V12 O32'
_cell_volume                            642.916036994
_cell_formula_units_Z                   1
loop_
  _symmetry_equiv_pos_site_id
  _symmetry_equiv_pos_as_xyz
   1  'x, y, z'
 
loop_
  _atom_site_type_symbol
  _atom_site_label
  _atom_site_symmetry_multiplicity
  _atom_site_fract_x
  _atom_site_fract_y
  _atom_site_fract_z
  _atom_site_attached_hydrogens
  _atom_site_B_iso_or_equiv
  _atom_site_occupancy
   Na  Na1  1  0.625116  0.500232  0.681338  0  .  1
   Na  Na2  1  0.124439  0.498880  0.683551  0  .  1
   Na  Na3  1  0.877460  0.501655  0.318911  0  .  1
   Na  Na4  1  0.374195  0.501655  0.318911  0  .  1
   Na  Na5  1  0.659473  0.568945  0.050972  0  .  1
   V  V6  1  0.406187  0.062374  0.806155  0  .  1
   V  V7  1  0.908241  0.066483  0.807840  0  .  1
   V  V8  1  0.696603  0.142668  0.462001  0  .  1
   V  V9  1  0.196065  0.142668  0.462001  0  .  1
   V  V10  1  0.467666  0.185331  0.080338  0  .  1
   V  V11  1  0.970112  0.190225  0.079961  0  .  1
   V  V12  1  0.528173  0.808465  0.918127  0  .  1
   V  V13  1  0.030292  0.808465  0.918127  0  .  1
   V  V14  1  0.804166  0.858333  0.539707  0  .  1
   V  V15  1  0.304227  0.858455  0.538971  0  .  1
   V  V16  1  0.594783  0.940635  0.194604  0  .  1
   V  V17  1  0.095853  0.940635  0.194604  0  .  1
   O  O18  1  0.627494  0.004628  0.826486  0  .  1
   O  O19  1  0.127134  0.004628  0.826486  0  .  1
   O  O20  1  0.501107  0.252212  0.953828  0  .  1
   O  O21  1  0.000352  0.250705  0.952090  0  .  1
   O  O22  1  0.906824  0.063648  0.463224  0  .  1
   O  O23  1  0.406544  0.063089  0.462500  0  .  1
   O  O24  1  0.977900  0.205800  0.728401  0  .  1
   O  O25  1  0.478675  0.207350  0.730357  0  .  1
   O  O26  1  0.211960  0.175100  0.327733  0  .  1
   O  O27  1  0.713139  0.175100  0.327733  0  .  1
   O  O28  1  0.302928  0.355939  0.553723  0  .  1
   O  O29  1  0.803011  0.355939  0.553723  0  .  1
   O  O30  1  0.682737  0.115910  0.072941  0  .  1
   O  O31  1  0.183173  0.115910  0.072941  0  .  1
   O  O32  1  0.925691  0.604863  0.816780  0  .  1
   O  O33  1  0.429172  0.604863  0.816780  0  .  1
   O  O34  1  0.572162  0.394325  0.180178  0  .  1
   O  O35  1  0.071241  0.392480  0.182355  0  .  1
   O  O36  1  0.317755  0.885512  0.925914  0  .  1
   O  O37  1  0.815403  0.880804  0.926909  0  .  1
   O  O38  1  0.697317  0.644633  0.448055  0  .  1
   O  O39  1  0.197353  0.644708  0.447658  0  .  1
   O  O40  1  0.788260  0.826520  0.673915  0  .  1
   O  O41  1  0.288359  0.826718  0.673836  0  .  1
   O  O42  1  0.525079  0.791960  0.268689  0  .  1
   O  O43  1  0.016881  0.791960  0.268689  0  .  1
   O  O44  1  0.593300  0.937141  0.537883  0  .  1
   O  O45  1  0.093841  0.937141  0.537883  0  .  1
   O  O46  1  -0.000027  0.748063  0.045631  0  .  1
   O  O47  1  0.498090  0.748063  0.045631  0  .  1
   O  O48  1  0.373858  0.997715  0.173345  0  .  1
   O  O49  1  0.871734  0.993466  0.171751  0  .  1
 
