#\#CIF1.1
##########################################################################
#               Crystallographic Information Format file 
#               Produced by PyCifRW module
# 
#  This is a CIF file.  CIF has been adopted by the International
#  Union of Crystallography as the standard for data archiving and 
#  transmission.
#
#  For information on this file format, follow the CIF links at
#  http://www.iucr.org
##########################################################################

data_Na6CoO4
_symmetry_space_group_name_H-M          'P 1'
_cell_length_a                          7.47944672002
_cell_length_b                          7.47942903002
_cell_length_c                          5.47547064
_cell_angle_alpha                       89.9999361533
_cell_angle_beta                        90.0000940914
_cell_angle_gamma                       89.9997327273
_chemical_name_systematic               'Generated by pymatgen'
_symmetry_Int_Tables_number             1
_chemical_formula_structural            Na6CoO4
_chemical_formula_sum                   'Na12 Co2 O8'
_cell_volume                            306.308728856
_cell_formula_units_Z                   2
loop_
  _symmetry_equiv_pos_site_id
  _symmetry_equiv_pos_as_xyz
   1  'x, y, z'
 
loop_
  _atom_site_type_symbol
  _atom_site_label
  _atom_site_symmetry_multiplicity
  _atom_site_fract_x
  _atom_site_fract_y
  _atom_site_fract_z
  _atom_site_attached_hydrogens
  _atom_site_B_iso_or_equiv
  _atom_site_occupancy
   Na  Na1  1  0.037253  0.537258  0.749999  0  .  1
   Na  Na2  1  0.037259  0.962761  0.750001  0  .  1
   Na  Na3  1  0.250022  0.250009  0.661325  0  .  1
   Na  Na4  1  0.250010  0.250000  0.161329  0  .  1
   Na  Na5  1  0.462762  0.537255  0.749999  0  .  1
   Na  Na6  1  0.462778  0.962777  0.749997  0  .  1
   Na  Na7  1  0.537253  0.037248  0.249995  0  .  1
   Na  Na8  1  0.537247  0.462759  0.249994  0  .  1
   Na  Na9  1  0.750000  0.750009  0.338677  0  .  1
   Na  Na10  1  0.750004  0.750008  0.838681  0  .  1
   Na  Na11  1  0.962759  0.037256  0.250001  0  .  1
   Na  Na12  1  0.962754  0.462758  0.250005  0  .  1
   Co  Co13  1  0.250000  0.750003  0.249997  0  .  1
   Co  Co14  1  0.750023  0.250014  0.750001  0  .  1
   O  O15  1  0.994751  0.250011  0.929673  0  .  1
   O  O16  1  0.250009  0.994752  0.429666  0  .  1
   O  O17  1  0.250002  0.505260  0.429663  0  .  1
   O  O18  1  0.505275  0.250009  0.929677  0  .  1
   O  O19  1  0.494750  0.750005  0.070331  0  .  1
   O  O20  1  0.750009  0.005273  0.570323  0  .  1
   O  O21  1  0.750003  0.494749  0.570327  0  .  1
   O  O22  1  0.005257  0.750006  0.070338  0  .  1
 
