#\#CIF1.1
##########################################################################
#               Crystallographic Information Format file 
#               Produced by PyCifRW module
# 
#  This is a CIF file.  CIF has been adopted by the International
#  Union of Crystallography as the standard for data archiving and 
#  transmission.
#
#  For information on this file format, follow the CIF links at
#  http://www.iucr.org
##########################################################################

data_Na6FeS4
_symmetry_space_group_name_H-M          'P 1'
_cell_length_a                          8.94658788
_cell_length_b                          8.9465878789
_cell_length_c                          6.94735417
_cell_angle_alpha                       90.0
_cell_angle_beta                        90.0
_cell_angle_gamma                       120.000000004
_chemical_name_systematic               'Generated by pymatgen'
_symmetry_Int_Tables_number             1
_chemical_formula_structural            Na6FeS4
_chemical_formula_sum                   'Na12 Fe2 S8'
_cell_volume                            481.576111316
_cell_formula_units_Z                   2
loop_
  _symmetry_equiv_pos_site_id
  _symmetry_equiv_pos_as_xyz
   1  'x, y, z'
 
loop_
  _atom_site_type_symbol
  _atom_site_label
  _atom_site_symmetry_multiplicity
  _atom_site_fract_x
  _atom_site_fract_y
  _atom_site_fract_z
  _atom_site_attached_hydrogens
  _atom_site_B_iso_or_equiv
  _atom_site_occupancy
   Na  Na1  1  0.146869  0.853131  0.539430  0  .  1
   Na  Na2  1  0.293737  0.146869  0.039430  0  .  1
   Na  Na3  1  0.853131  0.706263  0.039430  0  .  1
   Na  Na4  1  0.146869  0.293737  0.539430  0  .  1
   Na  Na5  1  0.706263  0.853131  0.539430  0  .  1
   Na  Na6  1  0.853131  0.146869  0.039430  0  .  1
   Na  Na7  1  0.531708  0.468292  0.368704  0  .  1
   Na  Na8  1  0.063415  0.531708  0.868704  0  .  1
   Na  Na9  1  0.468292  0.936585  0.868704  0  .  1
   Na  Na10  1  0.531708  0.063415  0.368704  0  .  1
   Na  Na11  1  0.936585  0.468292  0.368704  0  .  1
   Na  Na12  1  0.468292  0.531708  0.868704  0  .  1
   S  S13  1  0.810891  0.189109  0.645879  0  .  1
   S  S14  1  0.621782  0.810891  0.145879  0  .  1
   S  S15  1  0.333333  0.666667  0.591991  0  .  1
   S  S16  1  0.666667  0.333333  0.091991  0  .  1
   S  S17  1  0.189109  0.810891  0.145879  0  .  1
   S  S18  1  0.378218  0.189109  0.645879  0  .  1
   S  S19  1  0.810891  0.621782  0.645879  0  .  1
   S  S20  1  0.189109  0.378218  0.145879  0  .  1
   Fe  Fe21  1  0.666667  0.333333  0.752869  0  .  1
   Fe  Fe22  1  0.333333  0.666667  0.252869  0  .  1
 
