#\#CIF1.1
##########################################################################
#               Crystallographic Information Format file 
#               Produced by PyCifRW module
# 
#  This is a CIF file.  CIF has been adopted by the International
#  Union of Crystallography as the standard for data archiving and 
#  transmission.
#
#  For information on this file format, follow the CIF links at
#  http://www.iucr.org
##########################################################################

data_Na6FeO4
_symmetry_space_group_name_H-M          'P 1'
_cell_length_a                          7.61469923258
_cell_length_b                          7.61470652274
_cell_length_c                          5.42079429016
_cell_angle_alpha                       90.0008397814
_cell_angle_beta                        90.0002835555
_cell_angle_gamma                       89.9970354756
_chemical_name_systematic               'Generated by pymatgen'
_symmetry_Int_Tables_number             1
_chemical_formula_structural            Na6FeO4
_chemical_formula_sum                   'Na12 Fe2 O8'
_cell_volume                            314.317708964
_cell_formula_units_Z                   2
loop_
  _symmetry_equiv_pos_site_id
  _symmetry_equiv_pos_as_xyz
   1  'x, y, z'
 
loop_
  _atom_site_type_symbol
  _atom_site_label
  _atom_site_symmetry_multiplicity
  _atom_site_fract_x
  _atom_site_fract_y
  _atom_site_fract_z
  _atom_site_attached_hydrogens
  _atom_site_B_iso_or_equiv
  _atom_site_occupancy
   Na  Na1  1  0.040244  0.540249  0.750012  0  .  1
   Na  Na2  1  0.040400  0.959622  0.749999  0  .  1
   Na  Na3  1  0.250013  0.250011  0.654287  0  .  1
   Na  Na4  1  0.250001  0.250007  0.154283  0  .  1
   Na  Na5  1  0.459607  0.540412  0.750004  0  .  1
   Na  Na6  1  0.459755  0.959759  0.749985  0  .  1
   Na  Na7  1  0.540667  0.040669  0.250001  0  .  1
   Na  Na8  1  0.540651  0.459364  0.249999  0  .  1
   Na  Na9  1  0.750005  0.750014  0.345728  0  .  1
   Na  Na10  1  0.750014  0.750018  0.845726  0  .  1
   Na  Na11  1  0.959397  0.040627  0.250006  0  .  1
   Na  Na12  1  0.959349  0.459352  0.249996  0  .  1
   Fe  Fe13  1  0.250014  0.750006  0.249992  0  .  1
   Fe  Fe14  1  0.750000  0.250003  0.749995  0  .  1
   O  O15  1  0.999338  0.249984  0.921154  0  .  1
   O  O16  1  0.250045  0.999431  0.421235  0  .  1
   O  O17  1  0.249987  0.500573  0.421255  0  .  1
   O  O18  1  0.500656  0.250040  0.921169  0  .  1
   O  O19  1  0.499454  0.750029  0.078741  0  .  1
   O  O20  1  0.750028  0.000674  0.578842  0  .  1
   O  O21  1  0.749970  0.499358  0.578827  0  .  1
   O  O22  1  0.000588  0.749975  0.078763  0  .  1
 
