#\#CIF1.1
##########################################################################
#               Crystallographic Information Format file 
#               Produced by PyCifRW module
# 
#  This is a CIF file.  CIF has been adopted by the International
#  Union of Crystallography as the standard for data archiving and 
#  transmission.
#
#  For information on this file format, follow the CIF links at
#  http://www.iucr.org
##########################################################################

data_Na6Mn7O10
_symmetry_space_group_name_H-M          'P 1'
_cell_length_a                          3.52521935
_cell_length_b                          11.3380796393
_cell_length_c                          8.70607289689
_cell_angle_alpha                       72.5044218886
_cell_angle_beta                        90.0
_cell_angle_gamma                       81.0565661385
_chemical_name_systematic               'Generated by pymatgen'
_symmetry_Int_Tables_number             1
_chemical_formula_structural            Na6Mn7O10
_chemical_formula_sum                   'Na6 Mn7 O10'
_cell_volume                            327.439169541
_cell_formula_units_Z                   1
loop_
  _symmetry_equiv_pos_site_id
  _symmetry_equiv_pos_as_xyz
   1  'x, y, z'
 
loop_
  _atom_site_type_symbol
  _atom_site_label
  _atom_site_symmetry_multiplicity
  _atom_site_fract_x
  _atom_site_fract_y
  _atom_site_fract_z
  _atom_site_attached_hydrogens
  _atom_site_B_iso_or_equiv
  _atom_site_occupancy
   Na  Na1  1  0.999537  0.000927  0.174354  0  .  1
   Na  Na2  1  0.125325  0.749348  0.741839  0  .  1
   Na  Na3  1  0.716455  0.567088  0.650658  0  .  1
   Na  Na4  1  0.293192  0.413616  0.400307  0  .  1
   Na  Na5  1  0.891924  0.216151  0.261118  0  .  1
   Na  Na6  1  0.991091  0.017818  0.824764  0  .  1
   Mn  Mn7  1  0.602402  0.795195  0.962524  0  .  1
   Mn  Mn8  1  0.563904  0.872192  0.474079  0  .  1
   Mn  Mn9  1  0.155254  0.689493  0.281298  0  .  1
   Mn  Mn10  1  0.749181  0.501636  0.085386  0  .  1
   Mn  Mn11  1  0.849626  0.300746  0.700407  0  .  1
   Mn  Mn12  1  0.448469  0.103061  0.536615  0  .  1
   Mn  Mn13  1  0.356917  0.286167  0.968413  0  .  1
   O  O14  1  0.537429  0.925141  0.707102  0  .  1
   O  O15  1  0.115260  0.769482  0.470281  0  .  1
   O  O16  1  0.081047  0.837906  0.059773  0  .  1
   O  O17  1  0.678732  0.642535  0.879418  0  .  1
   O  O18  1  0.710283  0.579433  0.287455  0  .  1
   O  O19  1  0.300222  0.399555  0.703453  0  .  1
   O  O20  1  0.309798  0.380403  0.138880  0  .  1
   O  O21  1  0.905015  0.189971  0.947615  0  .  1
   O  O22  1  0.896981  0.206038  0.535709  0  .  1
   O  O23  1  0.473162  0.053676  0.325582  0  .  1
 
