#\#CIF1.1
##########################################################################
#               Crystallographic Information Format file 
#               Produced by PyCifRW module
# 
#  This is a CIF file.  CIF has been adopted by the International
#  Union of Crystallography as the standard for data archiving and 
#  transmission.
#
#  For information on this file format, follow the CIF links at
#  http://www.iucr.org
##########################################################################

data_Na6MnO4
_symmetry_space_group_name_H-M          'P 1'
_cell_length_a                          7.77295714
_cell_length_b                          7.77295713501
_cell_length_c                          5.96988108
_cell_angle_alpha                       90.0
_cell_angle_beta                        90.0
_cell_angle_gamma                       120.000000021
_chemical_name_systematic               'Generated by pymatgen'
_symmetry_Int_Tables_number             1
_chemical_formula_structural            Na6MnO4
_chemical_formula_sum                   'Na12 Mn2 O8'
_cell_volume                            312.369669028
_cell_formula_units_Z                   2
loop_
  _symmetry_equiv_pos_site_id
  _symmetry_equiv_pos_as_xyz
   1  'x, y, z'
 
loop_
  _atom_site_type_symbol
  _atom_site_label
  _atom_site_symmetry_multiplicity
  _atom_site_fract_x
  _atom_site_fract_y
  _atom_site_fract_z
  _atom_site_attached_hydrogens
  _atom_site_B_iso_or_equiv
  _atom_site_occupancy
   O  O1  1  0.187054  0.812946  0.364305  0  .  1
   O  O2  1  0.374108  0.187054  0.864305  0  .  1
   O  O3  1  0.812946  0.625892  0.864305  0  .  1
   O  O4  1  0.187054  0.374108  0.364305  0  .  1
   O  O5  1  0.625892  0.812946  0.364305  0  .  1
   O  O6  1  0.812946  0.187054  0.864305  0  .  1
   O  O7  1  0.666667  0.333333  0.403519  0  .  1
   O  O8  1  0.333333  0.666667  0.903519  0  .  1
   Na  Na9  1  0.539257  0.078513  0.142527  0  .  1
   Na  Na10  1  0.460743  0.539257  0.642527  0  .  1
   Na  Na11  1  0.921487  0.460743  0.142527  0  .  1
   Na  Na12  1  0.539257  0.460743  0.142527  0  .  1
   Na  Na13  1  0.139575  0.860425  0.974692  0  .  1
   Na  Na14  1  0.279151  0.139575  0.474692  0  .  1
   Na  Na15  1  0.078513  0.539257  0.642527  0  .  1
   Na  Na16  1  0.860425  0.720849  0.474692  0  .  1
   Na  Na17  1  0.860425  0.139575  0.474692  0  .  1
   Na  Na18  1  0.720849  0.860425  0.974692  0  .  1
   Na  Na19  1  0.139575  0.279151  0.974692  0  .  1
   Na  Na20  1  0.460743  0.921487  0.642527  0  .  1
   Mn  Mn21  1  0.666667  0.333333  0.746187  0  .  1
   Mn  Mn22  1  0.333333  0.666667  0.246187  0  .  1
 
