#\#CIF1.1
##########################################################################
#               Crystallographic Information Format file 
#               Produced by PyCifRW module
# 
#  This is a CIF file.  CIF has been adopted by the International
#  Union of Crystallography as the standard for data archiving and 
#  transmission.
#
#  For information on this file format, follow the CIF links at
#  http://www.iucr.org
##########################################################################

data_Na6Ti11O24
_symmetry_space_group_name_H-M          'P 1'
_cell_length_a                          6.2151786926
_cell_length_b                          6.2151786926
_cell_length_c                          15.0842123959
_cell_angle_alpha                       91.0477576143
_cell_angle_beta                        91.0477576143
_cell_angle_gamma                       58.7431437771
_chemical_name_systematic               'Generated by pymatgen'
_symmetry_Int_Tables_number             1
_chemical_formula_structural            Na6Ti11O24
_chemical_formula_sum                   'Na6 Ti11 O24'
_cell_volume                            497.993939315
_cell_formula_units_Z                   1
loop_
  _symmetry_equiv_pos_site_id
  _symmetry_equiv_pos_as_xyz
   1  'x, y, z'
 
loop_
  _atom_site_type_symbol
  _atom_site_label
  _atom_site_symmetry_multiplicity
  _atom_site_fract_x
  _atom_site_fract_y
  _atom_site_fract_z
  _atom_site_attached_hydrogens
  _atom_site_B_iso_or_equiv
  _atom_site_occupancy
   Na  Na1  1  0.663098  0.663098  0.083884  0  .  1
   Na  Na2  1  0.669889  0.669889  0.336371  0  .  1
   Na  Na3  1  0.833264  0.833264  0.541986  0  .  1
   Na  Na4  1  0.334790  0.334790  0.414945  0  .  1
   Na  Na5  1  0.331587  0.331587  0.667832  0  .  1
   Na  Na6  1  0.997370  0.997370  0.749643  0  .  1
   Ti  Ti7  1  0.166294  0.669792  0.204851  0  .  1
   Ti  Ti8  1  0.334613  0.334613  0.038226  0  .  1
   Ti  Ti9  1  0.669792  0.166294  0.204851  0  .  1
   Ti  Ti10  1  0.334320  0.832358  0.542857  0  .  1
   Ti  Ti11  1  0.163936  0.163936  0.204350  0  .  1
   Ti  Ti12  1  0.001667  0.001667  0.380343  0  .  1
   Ti  Ti13  1  0.832358  0.334320  0.542857  0  .  1
   Ti  Ti14  1  0.666747  0.666747  0.705900  0  .  1
   Ti  Ti15  1  0.000581  0.497884  0.878616  0  .  1
   Ti  Ti16  1  0.500423  0.500423  0.877910  0  .  1
   Ti  Ti17  1  0.497884  0.000581  0.878616  0  .  1
   O  O18  1  0.862825  0.862825  0.284369  0  .  1
   O  O19  1  0.289269  0.861425  0.278379  0  .  1
   O  O20  1  0.474430  0.474430  0.131235  0  .  1
   O  O21  1  0.050835  0.477467  0.130274  0  .  1
   O  O22  1  0.477467  0.050835  0.130274  0  .  1
   O  O23  1  0.334245  0.334245  0.270173  0  .  1
   O  O24  1  0.169864  0.726168  0.451792  0  .  1
   O  O25  1  0.495747  0.940357  0.631457  0  .  1
   O  O26  1  0.861425  0.289269  0.278379  0  .  1
   O  O27  1  0.647942  0.647942  0.479327  0  .  1
   O  O28  1  0.998002  0.998002  0.140468  0  .  1
   O  O29  1  0.940357  0.495747  0.631457  0  .  1
   O  O30  1  0.517252  0.517252  0.618869  0  .  1
   O  O31  1  0.380264  0.804152  0.803697  0  .  1
   O  O32  1  0.726168  0.169864  0.451792  0  .  1
   O  O33  1  0.803704  0.803704  0.797869  0  .  1
   O  O34  1  0.148645  0.148645  0.464024  0  .  1
   O  O35  1  0.804152  0.380264  0.803697  0  .  1
   O  O36  1  0.669042  0.669042  0.941519  0  .  1
   O  O37  1  0.018294  0.018294  0.604881  0  .  1
   O  O38  1  0.189363  0.616766  0.953699  0  .  1
   O  O39  1  0.332959  0.332959  0.812561  0  .  1
   O  O40  1  0.616766  0.189363  0.953699  0  .  1
   O  O41  1  0.192371  0.192371  0.952074  0  .  1
 
