#\#CIF1.1
##########################################################################
#               Crystallographic Information Format file 
#               Produced by PyCifRW module
# 
#  This is a CIF file.  CIF has been adopted by the International
#  Union of Crystallography as the standard for data archiving and 
#  transmission.
#
#  For information on this file format, follow the CIF links at
#  http://www.iucr.org
##########################################################################

data_Na6V2O7
_symmetry_space_group_name_H-M          'P 1'
_cell_length_a                          6.0143942866
_cell_length_b                          8.44637948
_cell_length_c                          8.99401967606
_cell_angle_alpha                       90.0
_cell_angle_beta                        91.9582342664
_cell_angle_gamma                       90.0
_chemical_name_systematic               'Generated by pymatgen'
_symmetry_Int_Tables_number             1
_chemical_formula_structural            Na6V2O7
_chemical_formula_sum                   'Na12 V4 O14'
_cell_volume                            456.628082829
_cell_formula_units_Z                   2
loop_
  _symmetry_equiv_pos_site_id
  _symmetry_equiv_pos_as_xyz
   1  'x, y, z'
 
loop_
  _atom_site_type_symbol
  _atom_site_label
  _atom_site_symmetry_multiplicity
  _atom_site_fract_x
  _atom_site_fract_y
  _atom_site_fract_z
  _atom_site_attached_hydrogens
  _atom_site_B_iso_or_equiv
  _atom_site_occupancy
   Na  Na1  1  0.145836  0.045678  0.720488  0  .  1
   Na  Na2  1  0.119971  0.915529  0.049105  0  .  1
   Na  Na3  1  0.251854  0.779168  0.459617  0  .  1
   Na  Na4  1  0.254111  0.274424  0.036784  0  .  1
   Na  Na5  1  0.373622  0.540339  0.768782  0  .  1
   Na  Na6  1  0.366249  0.416983  0.450286  0  .  1
   Na  Na7  1  0.619971  0.084471  0.549105  0  .  1
   Na  Na8  1  0.645836  0.954322  0.220488  0  .  1
   Na  Na9  1  0.751854  0.220832  0.959617  0  .  1
   Na  Na10  1  0.754111  0.725576  0.536784  0  .  1
   Na  Na11  1  0.866249  0.583017  0.950286  0  .  1
   Na  Na12  1  0.873622  0.459661  0.268782  0  .  1
   V  V13  1  0.074190  0.097127  0.361786  0  .  1
   V  V14  1  0.435138  0.607867  0.145484  0  .  1
   V  V15  1  0.574190  0.902873  0.861786  0  .  1
   V  V16  1  0.935138  0.392133  0.645484  0  .  1
   O  O17  1  0.046891  0.368195  0.829841  0  .  1
   O  O18  1  0.068436  0.243472  0.518087  0  .  1
   O  O19  1  0.068482  0.564015  0.559591  0  .  1
   O  O20  1  0.140071  0.606628  0.126192  0  .  1
   O  O21  1  0.365456  0.051621  0.349560  0  .  1
   O  O22  1  0.407946  0.059955  0.930607  0  .  1
   O  O23  1  0.466807  0.843487  0.678417  0  .  1
   O  O24  1  0.546891  0.631805  0.329841  0  .  1
   O  O25  1  0.568436  0.756528  0.018087  0  .  1
   O  O26  1  0.568482  0.435985  0.059591  0  .  1
   O  O27  1  0.640071  0.393372  0.626192  0  .  1
   O  O28  1  0.865456  0.948379  0.849560  0  .  1
   O  O29  1  0.907946  0.940045  0.430607  0  .  1
   O  O30  1  0.966807  0.156513  0.178417  0  .  1
 
