#\#CIF1.1
##########################################################################
#               Crystallographic Information Format file 
#               Produced by PyCifRW module
# 
#  This is a CIF file.  CIF has been adopted by the International
#  Union of Crystallography as the standard for data archiving and 
#  transmission.
#
#  For information on this file format, follow the CIF links at
#  http://www.iucr.org
##########################################################################

data_Na6ZnO4
_symmetry_space_group_name_H-M          'P 1'
_cell_length_a                          7.66350327
_cell_length_b                          7.6635032642
_cell_length_c                          5.91624685
_cell_angle_alpha                       90.0
_cell_angle_beta                        90.0
_cell_angle_gamma                       119.999999982
_chemical_name_systematic               'Generated by pymatgen'
_symmetry_Int_Tables_number             1
_chemical_formula_structural            Na6ZnO4
_chemical_formula_sum                   'Na12 Zn2 O8'
_cell_volume                            300.906529505
_cell_formula_units_Z                   2
loop_
  _symmetry_equiv_pos_site_id
  _symmetry_equiv_pos_as_xyz
   1  'x, y, z'
 
loop_
  _atom_site_type_symbol
  _atom_site_label
  _atom_site_symmetry_multiplicity
  _atom_site_fract_x
  _atom_site_fract_y
  _atom_site_fract_z
  _atom_site_attached_hydrogens
  _atom_site_B_iso_or_equiv
  _atom_site_occupancy
   O  O1  1  0.188583  0.811417  0.356868  0  .  1
   O  O2  1  0.377166  0.188583  0.856868  0  .  1
   O  O3  1  0.333333  0.666667  0.905024  0  .  1
   O  O4  1  0.666667  0.333333  0.405024  0  .  1
   O  O5  1  0.811417  0.188583  0.856868  0  .  1
   O  O6  1  0.622834  0.811417  0.356868  0  .  1
   O  O7  1  0.188583  0.377166  0.356868  0  .  1
   O  O8  1  0.811417  0.622834  0.856868  0  .  1
   Na  Na9  1  0.925192  0.462596  0.135071  0  .  1
   Na  Na10  1  0.462596  0.537404  0.635071  0  .  1
   Na  Na11  1  0.142023  0.857977  0.967510  0  .  1
   Na  Na12  1  0.284046  0.142023  0.467510  0  .  1
   Na  Na13  1  0.857977  0.715954  0.467510  0  .  1
   Na  Na14  1  0.142023  0.284046  0.967510  0  .  1
   Na  Na15  1  0.715954  0.857977  0.967510  0  .  1
   Na  Na16  1  0.857977  0.142023  0.467510  0  .  1
   Na  Na17  1  0.537404  0.462596  0.135071  0  .  1
   Na  Na18  1  0.074808  0.537404  0.635071  0  .  1
   Na  Na19  1  0.462596  0.925192  0.635071  0  .  1
   Na  Na20  1  0.537404  0.074808  0.135071  0  .  1
   Zn  Zn21  1  0.666667  0.333333  0.742630  0  .  1
   Zn  Zn22  1  0.333333  0.666667  0.242630  0  .  1
 
