#\#CIF1.1
##########################################################################
#               Crystallographic Information Format file 
#               Produced by PyCifRW module
# 
#  This is a CIF file.  CIF has been adopted by the International
#  Union of Crystallography as the standard for data archiving and 
#  transmission.
#
#  For information on this file format, follow the CIF links at
#  http://www.iucr.org
##########################################################################

data_Na6ZnS4
_symmetry_space_group_name_H-M          'P 1'
_cell_length_a                          8.98132724
_cell_length_b                          8.9813272404
_cell_length_c                          6.94182904
_cell_angle_alpha                       90.0
_cell_angle_beta                        90.0
_cell_angle_gamma                       119.999999999
_chemical_name_systematic               'Generated by pymatgen'
_symmetry_Int_Tables_number             1
_chemical_formula_structural            Na6ZnS4
_chemical_formula_sum                   'Na12 Zn2 S8'
_cell_volume                            484.937295988
_cell_formula_units_Z                   2
loop_
  _symmetry_equiv_pos_site_id
  _symmetry_equiv_pos_as_xyz
   1  'x, y, z'
 
loop_
  _atom_site_type_symbol
  _atom_site_label
  _atom_site_symmetry_multiplicity
  _atom_site_fract_x
  _atom_site_fract_y
  _atom_site_fract_z
  _atom_site_attached_hydrogens
  _atom_site_B_iso_or_equiv
  _atom_site_occupancy
   Na  Na1  1  0.147933  0.852067  0.538046  0  .  1
   Na  Na2  1  0.295866  0.147933  0.038046  0  .  1
   Na  Na3  1  0.852067  0.704134  0.038046  0  .  1
   Na  Na4  1  0.147933  0.295866  0.538046  0  .  1
   Na  Na5  1  0.704134  0.852067  0.538046  0  .  1
   Na  Na6  1  0.852067  0.147933  0.038046  0  .  1
   Na  Na7  1  0.531278  0.468722  0.365882  0  .  1
   Na  Na8  1  0.062557  0.531278  0.865882  0  .  1
   Na  Na9  1  0.468722  0.937443  0.865882  0  .  1
   Na  Na10  1  0.531278  0.062557  0.365882  0  .  1
   Na  Na11  1  0.937443  0.468722  0.365882  0  .  1
   Na  Na12  1  0.468722  0.531278  0.865882  0  .  1
   S  S13  1  0.812247  0.187753  0.641895  0  .  1
   S  S14  1  0.624495  0.812247  0.141895  0  .  1
   S  S15  1  0.333333  0.666667  0.593388  0  .  1
   S  S16  1  0.666667  0.333333  0.093388  0  .  1
   S  S17  1  0.187753  0.812247  0.141895  0  .  1
   S  S18  1  0.375505  0.187753  0.641895  0  .  1
   S  S19  1  0.812247  0.624495  0.641895  0  .  1
   S  S20  1  0.187753  0.375505  0.141895  0  .  1
   Zn  Zn21  1  0.666667  0.333333  0.748641  0  .  1
   Zn  Zn22  1  0.333333  0.666667  0.248641  0  .  1
 
