#\#CIF1.1
##########################################################################
#               Crystallographic Information Format file 
#               Produced by PyCifRW module
# 
#  This is a CIF file.  CIF has been adopted by the International
#  Union of Crystallography as the standard for data archiving and 
#  transmission.
#
#  For information on this file format, follow the CIF links at
#  http://www.iucr.org
##########################################################################

data_Na7Ni17O24
_symmetry_space_group_name_H-M          'P 1'
_cell_length_a                          5.98799049837
_cell_length_b                          6.11971005145
_cell_length_c                          14.7950427996
_cell_angle_alpha                       89.702954849
_cell_angle_beta                        89.7861628174
_cell_angle_gamma                       59.9091908674
_chemical_name_systematic               'Generated by pymatgen'
_symmetry_Int_Tables_number             1
_chemical_formula_structural            Na7Ni17O24
_chemical_formula_sum                   'Na7 Ni17 O24'
_cell_volume                            469.088155418
_cell_formula_units_Z                   1
loop_
  _symmetry_equiv_pos_site_id
  _symmetry_equiv_pos_as_xyz
   1  'x, y, z'
 
loop_
  _atom_site_type_symbol
  _atom_site_label
  _atom_site_symmetry_multiplicity
  _atom_site_fract_x
  _atom_site_fract_y
  _atom_site_fract_z
  _atom_site_attached_hydrogens
  _atom_site_B_iso_or_equiv
  _atom_site_occupancy
   Na  Na1  1  0.635616  0.135792  0.462777  0  .  1
   Na  Na2  1  0.973154  0.474110  0.131853  0  .  1
   Na  Na3  1  0.639240  0.646222  0.966223  0  .  1
   Na  Na4  1  0.308612  0.301400  0.296806  0  .  1
   Na  Na5  1  0.811565  0.811099  0.798363  0  .  1
   Na  Na6  1  0.136839  0.136036  0.464862  0  .  1
   Na  Na7  1  0.311566  0.811742  0.800330  0  .  1
   Ni  Ni8  1  0.811230  0.304799  0.300343  0  .  1
   Ni  Ni9  1  0.973676  0.473490  0.631473  0  .  1
   Ni  Ni10  1  0.639888  0.146688  0.966619  0  .  1
   Ni  Ni11  1  0.808428  0.314103  0.801046  0  .  1
   Ni  Ni12  1  0.973606  0.973660  0.631634  0  .  1
   Ni  Ni13  1  0.473815  0.473479  0.631612  0  .  1
   Ni  Ni14  1  0.809678  0.800298  0.296471  0  .  1
   Ni  Ni15  1  0.138553  0.147333  0.966464  0  .  1
   Ni  Ni16  1  0.473096  0.473677  0.131363  0  .  1
   Ni  Ni17  1  0.638727  0.639350  0.464067  0  .  1
   Ni  Ni18  1  0.309341  0.308186  0.799358  0  .  1
   Ni  Ni19  1  0.972825  0.974045  0.131163  0  .  1
   Ni  Ni20  1  0.137332  0.642663  0.963374  0  .  1
   Ni  Ni21  1  0.473578  0.973367  0.631672  0  .  1
   Ni  Ni22  1  0.307922  0.800377  0.296666  0  .  1
   Ni  Ni23  1  0.138913  0.633112  0.463419  0  .  1
   Ni  Ni24  1  0.473523  0.974207  0.131152  0  .  1
   O  O25  1  0.797323  0.280251  0.046878  0  .  1
   O  O26  1  0.782257  0.329780  0.560415  0  .  1
   O  O27  1  0.000412  0.451286  0.881171  0  .  1
   O  O28  1  0.670115  0.124376  0.205428  0  .  1
   O  O29  1  0.628519  0.168212  0.706378  0  .  1
   O  O30  1  0.947493  0.496252  0.382087  0  .  1
   O  O31  1  0.669714  0.619353  0.704218  0  .  1
   O  O32  1  0.996537  0.947777  0.368316  0  .  1
   O  O33  1  0.334201  0.298999  0.043766  0  .  1
   O  O34  1  0.475096  0.450292  0.882091  0  .  1
   O  O35  1  0.470479  0.500773  0.380185  0  .  1
   O  O36  1  0.131030  0.157030  0.709067  0  .  1
   O  O37  1  0.811839  0.838261  0.051515  0  .  1
   O  O38  1  0.815112  0.790829  0.553670  0  .  1
   O  O39  1  0.137394  0.104385  0.212284  0  .  1
   O  O40  1  0.952684  -0.000308  0.894612  0  .  1
   O  O41  1  0.610816  0.649323  0.220116  0  .  1
   O  O42  1  0.278320  0.327316  0.558545  0  .  1
   O  O43  1  0.164828  0.617213  0.702265  0  .  1
   O  O44  1  0.478300  0.928987  0.371257  0  .  1
   O  O45  1  0.469772  0.019301  0.891832  0  .  1
   O  O46  1  0.150519  0.667616  0.216724  0  .  1
   O  O47  1  0.318254  0.778759  0.556329  0  .  1
   O  O48  1  0.276972  0.822510  0.057213  0  .  1
 
