#\#CIF1.1
##########################################################################
#               Crystallographic Information Format file 
#               Produced by PyCifRW module
# 
#  This is a CIF file.  CIF has been adopted by the International
#  Union of Crystallography as the standard for data archiving and 
#  transmission.
#
#  For information on this file format, follow the CIF links at
#  http://www.iucr.org
##########################################################################

data_Na7Ti13O26
_symmetry_space_group_name_H-M          'P 1'
_cell_length_a                          10.7509764811
_cell_length_b                          5.15600914677
_cell_length_c                          11.3588822813
_cell_angle_alpha                       85.8639135
_cell_angle_beta                        114.742713805
_cell_angle_gamma                       99.0944477998
_chemical_name_systematic               'Generated by pymatgen'
_symmetry_Int_Tables_number             1
_chemical_formula_structural            Na7Ti13O26
_chemical_formula_sum                   'Na7 Ti13 O26'
_cell_volume                            564.642132258
_cell_formula_units_Z                   1
loop_
  _symmetry_equiv_pos_site_id
  _symmetry_equiv_pos_as_xyz
   1  'x, y, z'
 
loop_
  _atom_site_type_symbol
  _atom_site_label
  _atom_site_symmetry_multiplicity
  _atom_site_fract_x
  _atom_site_fract_y
  _atom_site_fract_z
  _atom_site_attached_hydrogens
  _atom_site_B_iso_or_equiv
  _atom_site_occupancy
   Na  Na1  1  0.845750  0.458508  0.922861  0  .  1
   Na  Na2  1  0.768404  0.698693  0.384786  0  .  1
   Na  Na3  1  0.539289  0.378230  0.769060  0  .  1
   Na  Na4  1  0.461942  0.618415  0.230985  0  .  1
   Na  Na5  1  0.232492  0.304673  0.615702  0  .  1
   Na  Na6  1  0.075200  0.772250  0.538144  0  .  1
   Na  Na7  1  0.153846  0.538462  0.076923  0  .  1
   Ti  Ti8  1  0.886256  0.851751  0.701002  0  .  1
   Ti  Ti9  1  0.962161  0.610609  0.233895  0  .  1
   Ti  Ti10  1  0.808049  0.068942  0.152427  0  .  1
   Ti  Ti11  1  0.731055  0.309100  0.605331  0  .  1
   Ti  Ti12  1  0.576637  0.767823  0.548515  0  .  1
   Ti  Ti13  1  0.653846  0.538462  0.076923  0  .  1
   Ti  Ti14  1  0.499643  0.007982  0.001419  0  .  1
   Ti  Ti15  1  0.345531  0.466314  0.919951  0  .  1
   Ti  Ti16  1  0.421437  0.225172  0.452844  0  .  1
   Ti  Ti17  1  0.270514  0.701569  0.389656  0  .  1
   Ti  Ti18  1  0.194032  0.917077  0.850324  0  .  1
   Ti  Ti19  1  0.113661  0.159847  0.303522  0  .  1
   Ti  Ti20  1  0.037178  0.375354  0.764190  0  .  1
   O  O21  1  0.868846  0.171817  0.776020  0  .  1
   O  O22  1  0.974933  0.306127  0.139432  0  .  1
   O  O23  1  0.899801  0.539651  0.602642  0  .  1
   O  O24  1  0.947233  0.928783  0.319783  0  .  1
   O  O25  1  0.668861  0.228416  0.988266  0  .  1
   O  O26  1  0.744316  0.981365  0.532990  0  .  1
   O  O27  1  0.715678  0.611039  0.705717  0  .  1
   O  O28  1  0.793497  0.396981  0.238356  0  .  1
   O  O29  1  0.822348  0.758230  0.068374  0  .  1
   O  O30  1  0.563377  0.095558  0.620856  0  .  1
   O  O31  1  0.638832  0.848507  0.165580  0  .  1
   O  O32  1  0.514195  0.679942  0.915490  0  .  1
   O  O33  1  0.592015  0.465884  0.448129  0  .  1
   O  O34  1  0.438847  0.905106  0.377826  0  .  1
   O  O35  1  0.485345  0.318693  0.085472  0  .  1
   O  O36  1  0.360460  0.148141  0.834063  0  .  1
   O  O37  1  0.407891  0.537272  0.551204  0  .  1
   O  O38  1  0.178301  0.247060  0.929058  0  .  1
   O  O39  1  0.204536  0.609242  0.753619  0  .  1
   O  O40  1  0.283672  0.385960  0.294624  0  .  1
   O  O41  1  0.332759  0.770796  0.014415  0  .  1
   O  O42  1  0.252757  0.012170  0.473000  0  .  1
   O  O43  1  0.054936  0.064753  0.680846  0  .  1
   O  O44  1  0.024020  0.690963  0.859222  0  .  1
   O  O45  1  0.103156  0.467682  0.400227  0  .  1
   O  O46  1  0.129391  0.829863  0.224788  0  .  1
 
