#\#CIF1.1
##########################################################################
#               Crystallographic Information Format file 
#               Produced by PyCifRW module
# 
#  This is a CIF file.  CIF has been adopted by the International
#  Union of Crystallography as the standard for data archiving and 
#  transmission.
#
#  For information on this file format, follow the CIF links at
#  http://www.iucr.org
##########################################################################

data_Na8CoO6
_symmetry_space_group_name_H-M          'P 1'
_cell_length_a                          6.36223117004
_cell_length_b                          6.36206957106
_cell_length_c                          12.70995171
_cell_angle_alpha                       89.9999778186
_cell_angle_beta                        89.9998038814
_cell_angle_gamma                       120.001221787
_chemical_name_systematic               'Generated by pymatgen'
_symmetry_Int_Tables_number             1
_chemical_formula_structural            Na8CoO6
_chemical_formula_sum                   'Na16 Co2 O12'
_cell_volume                            445.530093762
_cell_formula_units_Z                   2
loop_
  _symmetry_equiv_pos_site_id
  _symmetry_equiv_pos_as_xyz
   1  'x, y, z'
 
loop_
  _atom_site_type_symbol
  _atom_site_label
  _atom_site_symmetry_multiplicity
  _atom_site_fract_x
  _atom_site_fract_y
  _atom_site_fract_z
  _atom_site_attached_hydrogens
  _atom_site_B_iso_or_equiv
  _atom_site_occupancy
   Na  Na1  1  0.999965  0.703012  0.769930  0  .  1
   Na  Na2  1  0.000005  0.614547  0.123902  0  .  1
   Na  Na3  1  0.999979  0.385463  0.623897  0  .  1
   Na  Na4  1  0.000016  0.296983  0.269928  0  .  1
   Na  Na5  1  0.333322  0.666660  0.412466  0  .  1
   Na  Na6  1  0.333305  0.666620  0.912466  0  .  1
   Na  Na7  1  0.296972  0.296914  0.769921  0  .  1
   Na  Na8  1  0.385466  0.385490  0.123907  0  .  1
   Na  Na9  1  0.614530  0.614512  0.623906  0  .  1
   Na  Na10  1  0.297002  0.000068  0.269948  0  .  1
   Na  Na11  1  0.702996  0.703077  0.269926  0  .  1
   Na  Na12  1  0.385449  0.999933  0.623920  0  .  1
   Na  Na13  1  0.666647  0.333335  0.912462  0  .  1
   Na  Na14  1  0.666682  0.333392  0.412469  0  .  1
   Na  Na15  1  0.614546  0.000069  0.123920  0  .  1
   Na  Na16  1  0.702993  0.999937  0.769948  0  .  1
   Co  Co17  1  0.000000  0.999997  0.996969  0  .  1
   Co  Co18  1  0.999988  -0.000006  0.496970  0  .  1
   O  O19  1  0.999990  0.728524  0.952068  0  .  1
   O  O20  1  0.999997  0.271469  0.452069  0  .  1
   O  O21  1  0.333339  0.666695  0.221232  0  .  1
   O  O22  1  0.999999  0.000015  0.143536  0  .  1
   O  O23  1  0.999989  0.999984  0.643535  0  .  1
   O  O24  1  0.333319  0.666646  0.721235  0  .  1
   O  O25  1  0.271478  0.271474  0.952063  0  .  1
   O  O26  1  0.271480  0.000020  0.452070  0  .  1
   O  O27  1  0.728521  0.728535  0.452063  0  .  1
   O  O28  1  0.666642  0.333304  0.721235  0  .  1
   O  O29  1  0.666665  0.333348  0.221233  0  .  1
   O  O30  1  0.728515  0.999987  0.952066  0  .  1
 
