#\#CIF1.1
##########################################################################
#               Crystallographic Information Format file 
#               Produced by PyCifRW module
# 
#  This is a CIF file.  CIF has been adopted by the International
#  Union of Crystallography as the standard for data archiving and 
#  transmission.
#
#  For information on this file format, follow the CIF links at
#  http://www.iucr.org
##########################################################################

data_Na8Fe2O7
_symmetry_space_group_name_H-M          'P 1'
_cell_length_a                          8.79126079154
_cell_length_b                          10.2112745497
_cell_length_c                          11.12307465
_cell_angle_alpha                       90.0
_cell_angle_beta                        90.0
_cell_angle_gamma                       107.624449044
_chemical_name_systematic               'Generated by pymatgen'
_symmetry_Int_Tables_number             1
_chemical_formula_structural            Na8Fe2O7
_chemical_formula_sum                   'Na32 Fe8 O28'
_cell_volume                            951.649271981
_cell_formula_units_Z                   4
loop_
  _symmetry_equiv_pos_site_id
  _symmetry_equiv_pos_as_xyz
   1  'x, y, z'
 
loop_
  _atom_site_type_symbol
  _atom_site_label
  _atom_site_symmetry_multiplicity
  _atom_site_fract_x
  _atom_site_fract_y
  _atom_site_fract_z
  _atom_site_attached_hydrogens
  _atom_site_B_iso_or_equiv
  _atom_site_occupancy
   Na  Na1  1  0.713984  0.430161  0.749718  0  .  1
   Na  Na2  1  0.119213  0.422982  0.024256  0  .  1
   Na  Na3  1  0.119213  0.922982  0.475744  0  .  1
   Na  Na4  1  0.880787  0.577018  0.975744  0  .  1
   Na  Na5  1  0.105639  0.032921  0.759766  0  .  1
   Na  Na6  1  0.894361  0.467079  0.259766  0  .  1
   Na  Na7  1  0.894361  0.967079  0.240234  0  .  1
   Na  Na8  1  0.105639  0.532921  0.740234  0  .  1
   Na  Na9  1  0.256841  0.211746  0.552835  0  .  1
   Na  Na10  1  0.743159  0.288254  0.052835  0  .  1
   Na  Na11  1  0.743159  0.788254  0.447165  0  .  1
   Na  Na12  1  0.256841  0.711746  0.947165  0  .  1
   Na  Na13  1  0.339024  0.516470  0.504755  0  .  1
   Na  Na14  1  0.660976  0.983530  0.004755  0  .  1
   Na  Na15  1  0.660976  0.483530  0.495245  0  .  1
   Na  Na16  1  0.339024  0.016470  0.995245  0  .  1
   Na  Na17  1  0.499848  0.627247  0.731668  0  .  1
   Na  Na18  1  0.500152  0.872753  0.231668  0  .  1
   Na  Na19  1  0.500152  0.372753  0.268332  0  .  1
   Na  Na20  1  0.499848  0.127247  0.768332  0  .  1
   Na  Na21  1  0.083586  0.143392  0.038930  0  .  1
   Na  Na22  1  0.713984  0.930161  0.750282  0  .  1
   Na  Na23  1  0.880787  0.077018  0.524256  0  .  1
   Na  Na24  1  0.286016  0.069839  0.249718  0  .  1
   Na  Na25  1  0.567799  0.644346  0.972968  0  .  1
   Na  Na26  1  0.432201  0.855654  0.472968  0  .  1
   Na  Na27  1  0.432201  0.355654  0.027032  0  .  1
   Na  Na28  1  0.567799  0.144346  0.527032  0  .  1
   Na  Na29  1  0.083586  0.643392  0.461070  0  .  1
   Na  Na30  1  0.916414  0.856608  0.961070  0  .  1
   Na  Na31  1  0.916414  0.356608  0.538930  0  .  1
   Na  Na32  1  0.286016  0.569839  0.250282  0  .  1
   Fe  Fe33  1  0.308582  0.846926  0.716741  0  .  1
   Fe  Fe34  1  0.691418  0.653074  0.216741  0  .  1
   Fe  Fe35  1  0.691418  0.153074  0.283259  0  .  1
   Fe  Fe36  1  0.308582  0.346926  0.783259  0  .  1
   Fe  Fe37  1  0.906433  0.726186  0.703025  0  .  1
   Fe  Fe38  1  0.093567  0.773814  0.203025  0  .  1
   Fe  Fe39  1  0.093567  0.273814  0.296975  0  .  1
   Fe  Fe40  1  0.906433  0.226186  0.796975  0  .  1
   O  O41  1  0.103955  0.620568  0.110798  0  .  1
   O  O42  1  0.896045  0.879432  0.610798  0  .  1
   O  O43  1  0.896045  0.379432  0.889202  0  .  1
   O  O44  1  0.103955  0.120568  0.389202  0  .  1
   O  O45  1  0.671503  0.496487  0.115447  0  .  1
   O  O46  1  0.328497  0.003513  0.615447  0  .  1
   O  O47  1  0.328497  0.503513  0.884553  0  .  1
   O  O48  1  0.671503  0.996487  0.384553  0  .  1
   O  O49  1  0.893838  0.566445  0.610461  0  .  1
   O  O50  1  0.106162  0.933555  0.110461  0  .  1
   O  O51  1  0.106162  0.433555  0.389539  0  .  1
   O  O52  1  0.893838  0.066445  0.889539  0  .  1
   O  O53  1  0.747845  0.683062  0.824621  0  .  1
   O  O54  1  0.252155  0.816938  0.324621  0  .  1
   O  O55  1  0.252155  0.316938  0.175379  0  .  1
   O  O56  1  0.747845  0.183062  0.675379  0  .  1
   O  O57  1  0.322819  0.699034  0.618976  0  .  1
   O  O58  1  0.677181  0.800966  0.118976  0  .  1
   O  O59  1  0.677181  0.300966  0.381024  0  .  1
   O  O60  1  0.322819  0.199034  0.881024  0  .  1
   O  O61  1  0.541743  0.605362  0.348926  0  .  1
   O  O62  1  0.458257  0.894638  0.848926  0  .  1
   O  O63  1  0.458257  0.394638  0.651074  0  .  1
   O  O64  1  0.541743  0.105362  0.151074  0  .  1
   O  O65  1  0.896972  0.715979  0.301567  0  .  1
   O  O66  1  0.103028  0.784021  0.801567  0  .  1
   O  O67  1  0.103028  0.284021  0.698433  0  .  1
   O  O68  1  0.896972  0.215979  0.198433  0  .  1
 
