#\#CIF1.1
##########################################################################
#               Crystallographic Information Format file 
#               Produced by PyCifRW module
# 
#  This is a CIF file.  CIF has been adopted by the International
#  Union of Crystallography as the standard for data archiving and 
#  transmission.
#
#  For information on this file format, follow the CIF links at
#  http://www.iucr.org
##########################################################################

data_Na8NiO6
_symmetry_space_group_name_H-M          'P 1'
_cell_length_a                          6.32800607613
_cell_length_b                          6.32291276895
_cell_length_c                          12.819844913
_cell_angle_alpha                       90.0049214151
_cell_angle_beta                        89.9873961065
_cell_angle_gamma                       120.091392769
_chemical_name_systematic               'Generated by pymatgen'
_symmetry_Int_Tables_number             1
_chemical_formula_structural            Na8NiO6
_chemical_formula_sum                   'Na16 Ni2 O12'
_cell_volume                            443.809686136
_cell_formula_units_Z                   2
loop_
  _symmetry_equiv_pos_site_id
  _symmetry_equiv_pos_as_xyz
   1  'x, y, z'
 
loop_
  _atom_site_type_symbol
  _atom_site_label
  _atom_site_symmetry_multiplicity
  _atom_site_fract_x
  _atom_site_fract_y
  _atom_site_fract_z
  _atom_site_attached_hydrogens
  _atom_site_B_iso_or_equiv
  _atom_site_occupancy
   Na  Na1  1  0.999821  0.709797  0.772060  0  .  1
   Na  Na2  1  0.000571  0.618426  0.119842  0  .  1
   Na  Na3  1  0.999873  0.381537  0.620321  0  .  1
   Na  Na4  1  0.999926  0.290027  0.272322  0  .  1
   Na  Na5  1  0.334128  0.667324  0.415509  0  .  1
   Na  Na6  1  0.332880  0.666215  0.915040  0  .  1
   Na  Na7  1  0.290753  0.290892  0.771905  0  .  1
   Na  Na8  1  0.382214  0.381884  0.119990  0  .  1
   Na  Na9  1  0.618039  0.617661  0.620325  0  .  1
   Na  Na10  1  0.289240  0.000206  0.272422  0  .  1
   Na  Na11  1  0.709774  0.710297  0.272327  0  .  1
   Na  Na12  1  0.381534  0.999489  0.620228  0  .  1
   Na  Na13  1  0.665812  0.332594  0.915041  0  .  1
   Na  Na14  1  0.667135  0.333915  0.415550  0  .  1
   Na  Na15  1  0.618786  0.999991  0.119979  0  .  1
   Na  Na16  1  0.709176  0.000008  0.771839  0  .  1
   Ni  Ni17  1  -0.000180  -0.000354  0.995378  0  .  1
   Ni  Ni18  1  0.000415  0.000173  0.495413  0  .  1
   O  O19  1  0.999955  0.719936  0.950902  0  .  1
   O  O20  1  0.000014  0.279657  0.450999  0  .  1
   O  O21  1  0.333406  0.667417  0.220781  0  .  1
   O  O22  1  0.999656  0.999834  0.148698  0  .  1
   O  O23  1  0.000179  0.000324  0.648636  0  .  1
   O  O24  1  0.332643  0.666548  0.720635  0  .  1
   O  O25  1  0.280190  0.280223  0.950832  0  .  1
   O  O26  1  0.279974  0.999972  0.451075  0  .  1
   O  O27  1  0.719693  0.719643  0.450974  0  .  1
   O  O28  1  0.666494  0.332892  0.720625  0  .  1
   O  O29  1  0.667141  0.333482  0.220765  0  .  1
   O  O30  1  0.720557  -0.000008  0.950844  0  .  1
 
