#\#CIF1.1
##########################################################################
#               Crystallographic Information Format file 
#               Produced by PyCifRW module
# 
#  This is a CIF file.  CIF has been adopted by the International
#  Union of Crystallography as the standard for data archiving and 
#  transmission.
#
#  For information on this file format, follow the CIF links at
#  http://www.iucr.org
##########################################################################

data_Na9Fe2O7
_symmetry_space_group_name_H-M          'P 1'
_cell_length_a                          9.60031545
_cell_length_b                          10.07572779
_cell_length_c                          10.48403899
_cell_angle_alpha                       90.0
_cell_angle_beta                        90.0
_cell_angle_gamma                       90.0
_chemical_name_systematic               'Generated by pymatgen'
_symmetry_Int_Tables_number             1
_chemical_formula_structural            Na9Fe2O7
_chemical_formula_sum                   'Na36 Fe8 O28'
_cell_volume                            1014.12282318
_cell_formula_units_Z                   4
loop_
  _symmetry_equiv_pos_site_id
  _symmetry_equiv_pos_as_xyz
   1  'x, y, z'
 
loop_
  _atom_site_type_symbol
  _atom_site_label
  _atom_site_symmetry_multiplicity
  _atom_site_fract_x
  _atom_site_fract_y
  _atom_site_fract_z
  _atom_site_attached_hydrogens
  _atom_site_B_iso_or_equiv
  _atom_site_occupancy
   O  O1  1  0.803858  0.713753  0.336253  0  .  1
   O  O2  1  0.196141  0.286246  0.836252  0  .  1
   O  O3  1  0.696142  0.713753  0.836252  0  .  1
   O  O4  1  0.303859  0.286246  0.336253  0  .  1
   O  O5  1  0.845395  0.165661  0.167199  0  .  1
   O  O6  1  0.154605  0.834339  0.667199  0  .  1
   O  O7  1  0.654605  0.165661  0.667199  0  .  1
   O  O8  1  0.345396  0.834339  0.167199  0  .  1
   O  O9  1  0.541883  0.222388  0.048839  0  .  1
   O  O10  1  0.458117  0.777612  0.548839  0  .  1
   O  O11  1  0.958117  0.222388  0.548839  0  .  1
   O  O12  1  0.041883  0.777612  0.048839  0  .  1
   O  O13  1  0.661181  0.417469  0.409393  0  .  1
   O  O14  1  0.338819  0.582531  0.909393  0  .  1
   O  O15  1  0.838819  0.417469  0.909393  0  .  1
   O  O16  1  0.161182  0.582531  0.409393  0  .  1
   O  O17  1  0.594410  0.073237  0.318730  0  .  1
   O  O18  1  0.405590  0.926762  0.818729  0  .  1
   O  O19  1  0.905590  0.073237  0.818729  0  .  1
   O  O20  1  0.094410  0.926762  0.318730  0  .  1
   O  O21  1  0.583390  0.580271  0.149002  0  .  1
   O  O22  1  0.416609  0.419729  0.649002  0  .  1
   O  O23  1  0.916609  0.580271  0.649002  0  .  1
   O  O24  1  0.083391  0.419729  0.149002  0  .  1
   O  O25  1  0.666781  0.934665  0.061127  0  .  1
   O  O26  1  0.333220  0.065335  0.561126  0  .  1
   O  O27  1  0.833220  0.934665  0.561126  0  .  1
   O  O28  1  0.166780  0.065335  0.061127  0  .  1
   Na  Na29  1  0.569495  0.834901  0.249584  0  .  1
   Na  Na30  1  0.430504  0.165100  0.749584  0  .  1
   Na  Na31  1  0.930505  0.834901  0.749584  0  .  1
   Na  Na32  1  0.069496  0.165100  0.249584  0  .  1
   Na  Na33  1  0.922899  0.453419  0.472247  0  .  1
   Na  Na34  1  0.077101  0.546581  0.972247  0  .  1
   Na  Na35  1  0.577100  0.453419  0.972247  0  .  1
   Na  Na36  1  0.422900  0.546581  0.472247  0  .  1
   Na  Na37  1  0.013220  0.242955  0.987723  0  .  1
   Na  Na38  1  0.986779  0.757045  0.487723  0  .  1
   Na  Na39  1  0.486780  0.242955  0.487723  0  .  1
   Na  Na40  1  0.513221  0.757045  0.987723  0  .  1
   Na  Na41  1  0.513847  0.340614  0.239160  0  .  1
   Na  Na42  1  0.486154  0.659386  0.739160  0  .  1
   Na  Na43  1  0.986154  0.340614  0.739160  0  .  1
   Na  Na44  1  0.013846  0.659386  0.239160  0  .  1
   Na  Na45  1  0.712344  0.728739  0.554796  0  .  1
   Na  Na46  1  0.287656  0.271261  0.054795  0  .  1
   Na  Na47  1  0.787656  0.728739  0.054795  0  .  1
   Na  Na48  1  0.212345  0.271261  0.554796  0  .  1
   Na  Na49  1  0.410842  0.014193  0.022388  0  .  1
   Na  Na50  1  0.589158  0.985808  0.522388  0  .  1
   Na  Na51  1  0.089159  0.014193  0.522388  0  .  1
   Na  Na52  1  0.910841  0.985808  0.022388  0  .  1
   Na  Na53  1  0.778003  0.216381  0.387284  0  .  1
   Na  Na54  1  0.221997  0.783619  0.887284  0  .  1
   Na  Na55  1  0.721996  0.216381  0.887284  0  .  1
   Na  Na56  1  0.278003  0.783619  0.387284  0  .  1
   Na  Na57  1  0.848371  0.939209  0.328546  0  .  1
   Na  Na58  1  0.151628  0.060791  0.828546  0  .  1
   Na  Na59  1  0.651629  0.939209  0.828546  0  .  1
   Na  Na60  1  0.348371  0.060791  0.328546  0  .  1
   Na  Na61  1  0.842302  0.391220  0.129922  0  .  1
   Na  Na62  1  0.157698  0.608780  0.629922  0  .  1
   Na  Na63  1  0.657699  0.391220  0.629922  0  .  1
   Na  Na64  1  0.342302  0.608780  0.129922  0  .  1
   Fe  Fe65  1  0.686288  0.568824  0.302942  0  .  1
   Fe  Fe66  1  0.313712  0.431176  0.802943  0  .  1
   Fe  Fe67  1  0.813711  0.568824  0.802943  0  .  1
   Fe  Fe68  1  0.186288  0.431176  0.302942  0  .  1
   Fe  Fe69  1  0.659365  0.101600  0.147395  0  .  1
   Fe  Fe70  1  0.340635  0.898400  0.647396  0  .  1
   Fe  Fe71  1  0.840635  0.101600  0.647396  0  .  1
   Fe  Fe72  1  0.159365  0.898400  0.147395  0  .  1
 
