#\#CIF1.1
##########################################################################
#               Crystallographic Information Format file 
#               Produced by PyCifRW module
# 
#  This is a CIF file.  CIF has been adopted by the International
#  Union of Crystallography as the standard for data archiving and 
#  transmission.
#
#  For information on this file format, follow the CIF links at
#  http://www.iucr.org
##########################################################################

data_Na9Mn15O32
_symmetry_space_group_name_H-M          'P 1'
_cell_length_a                          6.30682790725
_cell_length_b                          6.19838160566
_cell_length_c                          20.3139336269
_cell_angle_alpha                       97.7606617817
_cell_angle_beta                        91.7931827567
_cell_angle_gamma                       122.057930352
_chemical_name_systematic               'Generated by pymatgen'
_symmetry_Int_Tables_number             1
_chemical_formula_structural            Na9Mn15O32
_chemical_formula_sum                   'Na9 Mn15 O32'
_cell_volume                            661.825567286
_cell_formula_units_Z                   1
loop_
  _symmetry_equiv_pos_site_id
  _symmetry_equiv_pos_as_xyz
   1  'x, y, z'
 
loop_
  _atom_site_type_symbol
  _atom_site_label
  _atom_site_symmetry_multiplicity
  _atom_site_fract_x
  _atom_site_fract_y
  _atom_site_fract_z
  _atom_site_attached_hydrogens
  _atom_site_B_iso_or_equiv
  _atom_site_occupancy
   Na  Na1  1  0.853804  0.687571  0.035036  0  .  1
   Na  Na2  1  0.375029  0.251659  0.124435  0  .  1
   Na  Na3  1  0.895122  0.817656  0.215621  0  .  1
   Na  Na4  1  0.593087  0.198238  0.278034  0  .  1
   Na  Na5  1  0.334986  0.682311  0.533089  0  .  1
   Na  Na6  1  0.415513  0.813379  0.715829  0  .  1
   Na  Na7  1  0.661582  0.312846  0.465549  0  .  1
   Na  Na8  1  0.074439  0.187497  0.784124  0  .  1
   Na  Na9  1  0.171354  0.307099  0.972202  0  .  1
   Mn  Mn10  1  0.374970  0.752861  0.124694  0  .  1
   Mn  Mn11  1  0.243587  0.515481  0.248344  0  .  1
   Mn  Mn12  1  0.130109  0.761514  0.373125  0  .  1
   Mn  Mn13  1  0.514531  0.989833  0.001329  0  .  1
   Mn  Mn14  1  0.128140  0.256329  0.372418  0  .  1
   Mn  Mn15  1  0.625418  0.757538  0.373401  0  .  1
   Mn  Mn16  1  0.875550  0.252731  0.125237  0  .  1
   Mn  Mn17  1  0.995194  0.998339  0.499352  0  .  1
   Mn  Mn18  1  0.123748  0.744094  0.877497  0  .  1
   Mn  Mn19  1  0.874256  0.747668  0.625008  0  .  1
   Mn  Mn20  1  0.373326  0.247707  0.624771  0  .  1
   Mn  Mn21  1  0.620675  0.741978  0.876066  0  .  1
   Mn  Mn22  1  0.744506  0.499164  0.751111  0  .  1
   Mn  Mn23  1  0.873523  0.248693  0.625465  0  .  1
   Mn  Mn24  1  0.621289  0.245718  0.877574  0  .  1
   O  O25  1  0.255279  0.861743  0.054593  0  .  1
   O  O26  1  0.667557  0.893565  0.069611  0  .  1
   O  O27  1  0.085684  0.613512  0.181341  0  .  1
   O  O28  1  0.164947  0.400648  0.078435  0  .  1
   O  O29  1  0.495892  0.641111  0.192887  0  .  1
   O  O30  1  0.058856  0.197214  0.191458  0  .  1
   O  O31  1  0.420490  0.839988  0.320614  0  .  1
   O  O32  1  0.693764  0.308489  0.058691  0  .  1
   O  O33  1  0.338152  0.608630  0.424180  0  .  1
   O  O34  1  0.402652  0.412185  0.314338  0  .  1
   O  O35  1  0.148500  0.895573  0.566866  0  .  1
   O  O36  1  0.583919  0.104147  0.171212  0  .  1
   O  O37  1  0.913785  0.900886  0.323793  0  .  1
   O  O38  1  0.022566  0.600808  0.672880  0  .  1
   O  O39  1  0.836824  0.682172  0.429275  0  .  1
   O  O40  1  0.272928  0.110770  0.421325  0  .  1
   O  O41  1  0.994434  0.415131  0.319666  0  .  1
   O  O42  1  0.724696  0.895918  0.578178  0  .  1
   O  O43  1  0.157475  0.315846  0.569463  0  .  1
   O  O44  1  0.092970  0.100960  0.676677  0  .  1
   O  O45  1  0.467691  0.890891  0.825664  0  .  1
   O  O46  1  0.596675  0.598702  0.681861  0  .  1
   O  O47  1  0.655521  0.394295  0.573467  0  .  1
   O  O48  1  0.852400  0.108790  0.430804  0  .  1
   O  O49  1  0.348151  0.664828  0.930010  0  .  1
   O  O50  1  0.589192  0.181275  0.680862  0  .  1
   O  O51  1  0.468791  0.384318  0.825432  0  .  1
   O  O52  1  0.895862  0.818207  0.820145  0  .  1
   O  O53  1  0.899232  0.401601  0.821701  0  .  1
   O  O54  1  0.780460  0.604783  0.926648  0  .  1
   O  O55  1  0.348874  0.084901  0.934019  0  .  1
   O  O56  1  0.766114  0.094020  0.932391  0  .  1
 
