#\#CIF1.1
##########################################################################
#               Crystallographic Information Format file 
#               Produced by PyCifRW module
# 
#  This is a CIF file.  CIF has been adopted by the International
#  Union of Crystallography as the standard for data archiving and 
#  transmission.
#
#  For information on this file format, follow the CIF links at
#  http://www.iucr.org
##########################################################################

data_Na9Mn21O40
_symmetry_space_group_name_H-M          'P 1'
_cell_length_a                          6.24338332052
_cell_length_b                          6.25296796349
_cell_length_c                          21.4606793617
_cell_angle_alpha                       97.2288887948
_cell_angle_beta                        82.6611768139
_cell_angle_gamma                       85.2277779186
_chemical_name_systematic               'Generated by pymatgen'
_symmetry_Int_Tables_number             1
_chemical_formula_structural            Na9Mn21O40
_chemical_formula_sum                   'Na9 Mn21 O40'
_cell_volume                            820.143535876
_cell_formula_units_Z                   1
loop_
  _symmetry_equiv_pos_site_id
  _symmetry_equiv_pos_as_xyz
   1  'x, y, z'
 
loop_
  _atom_site_type_symbol
  _atom_site_label
  _atom_site_symmetry_multiplicity
  _atom_site_fract_x
  _atom_site_fract_y
  _atom_site_fract_z
  _atom_site_attached_hydrogens
  _atom_site_B_iso_or_equiv
  _atom_site_occupancy
   Na  Na1  1  0.969012  0.763178  0.048588  0  .  1
   Na  Na2  1  0.363605  0.364678  0.250324  0  .  1
   Na  Na3  1  0.836320  0.435321  0.349732  0  .  1
   Na  Na4  1  0.436661  0.835164  0.149965  0  .  1
   Na  Na5  1  0.236299  0.035295  0.549453  0  .  1
   Na  Na6  1  0.763577  0.964610  0.450004  0  .  1
   Na  Na7  1  0.162277  0.570327  0.651817  0  .  1
   Na  Na8  1  0.625497  0.634142  0.748354  0  .  1
   Na  Na9  1  0.034973  0.223671  0.951413  0  .  1
   Mn  Mn10  1  0.506032  0.002741  0.999782  0  .  1
   Mn  Mn11  1  0.900334  0.099836  0.200122  0  .  1
   Mn  Mn12  1  0.700053  0.299995  0.100637  0  .  1
   Mn  Mn13  1  0.502067  0.500237  0.000646  0  .  1
   Mn  Mn14  1  0.199530  0.299077  0.099866  0  .  1
   Mn  Mn15  1  0.900614  0.600245  0.199951  0  .  1
   Mn  Mn16  1  0.299953  0.199958  0.399916  0  .  1
   Mn  Mn17  1  0.600207  0.899924  0.299970  0  .  1
   Mn  Mn18  1  0.499812  0.500063  0.499747  0  .  1
   Mn  Mn19  1  0.900045  0.102074  0.699409  0  .  1
   Mn  Mn20  1  0.100216  0.899955  0.300010  0  .  1
   Mn  Mn21  1  0.299960  0.700030  0.399874  0  .  1
   Mn  Mn22  1  0.700078  0.299923  0.599285  0  .  1
   Mn  Mn23  1  0.000242  0.500472  0.499942  0  .  1
   Mn  Mn24  1  0.699035  0.799443  0.599970  0  .  1
   Mn  Mn25  1  0.402347  0.105521  0.700261  0  .  1
   Mn  Mn26  1  0.571607  0.172269  0.850294  0  .  1
   Mn  Mn27  1  0.799963  0.694806  0.899389  0  .  1
   Mn  Mn28  1  0.094798  0.400503  0.800921  0  .  1
   Mn  Mn29  1  0.094669  0.896159  0.801146  0  .  1
   Mn  Mn30  1  0.295661  0.694941  0.899203  0  .  1
   O  O31  1  0.929899  0.078543  0.107896  0  .  1
   O  O32  1  0.721386  0.270298  0.009114  0  .  1
   O  O33  1  0.300359  0.272362  0.006952  0  .  1
   O  O34  1  0.470018  0.098896  0.093399  0  .  1
   O  O35  1  0.929232  0.501512  0.106931  0  .  1
   O  O36  1  0.468999  0.521139  0.092480  0  .  1
   O  O37  1  0.869636  0.120373  0.292188  0  .  1
   O  O38  1  0.679350  0.330465  0.192570  0  .  1
   O  O39  1  0.699280  0.870912  0.207012  0  .  1
   O  O40  1  0.871176  0.699006  0.293076  0  .  1
   O  O41  1  0.329190  0.100864  0.306887  0  .  1
   O  O42  1  0.101205  0.329169  0.193035  0  .  1
   O  O43  1  0.330864  0.679610  0.307824  0  .  1
   O  O44  1  0.121271  0.869937  0.207921  0  .  1
   O  O45  1  0.731259  0.279806  0.507373  0  .  1
   O  O46  1  0.922073  0.069766  0.607577  0  .  1
   O  O47  1  0.520864  0.469905  0.407662  0  .  1
   O  O48  1  0.901364  0.529811  0.593045  0  .  1
   O  O49  1  0.500873  0.929357  0.393026  0  .  1
   O  O50  1  0.499482  0.069407  0.606319  0  .  1
   O  O51  1  0.099017  0.470605  0.406828  0  .  1
   O  O52  1  0.728789  0.700895  0.506777  0  .  1
   O  O53  1  0.271214  0.299117  0.492899  0  .  1
   O  O54  1  0.478051  0.529171  0.592020  0  .  1
   O  O55  1  0.079083  0.930115  0.392110  0  .  1
   O  O56  1  0.669210  0.320796  0.690899  0  .  1
   O  O57  1  0.269325  0.720404  0.491964  0  .  1
   O  O58  1  0.864786  0.135822  0.794625  0  .  1
   O  O59  1  0.326213  0.151522  0.795553  0  .  1
   O  O60  1  0.883101  0.653970  0.807070  0  .  1
   O  O61  1  0.671922  0.900612  0.693027  0  .  1
   O  O62  1  0.127863  0.301679  0.707620  0  .  1
   O  O63  1  0.538435  0.466265  0.905168  0  .  1
   O  O64  1  0.134011  0.888556  0.709091  0  .  1
   O  O65  1  0.313796  0.661929  0.807329  0  .  1
   O  O66  1  0.051891  0.481454  0.892935  0  .  1
   O  O67  1  0.552822  0.928341  0.905139  0  .  1
   O  O68  1  0.701563  0.727641  0.992579  0  .  1
   O  O69  1  0.057933  0.912507  0.892988  0  .  1
   O  O70  1  0.287748  0.732907  0.991100  0  .  1
 
