#\#CIF1.1
##########################################################################
#               Crystallographic Information Format file 
#               Produced by PyCifRW module
# 
#  This is a CIF file.  CIF has been adopted by the International
#  Union of Crystallography as the standard for data archiving and 
#  transmission.
#
#  For information on this file format, follow the CIF links at
#  http://www.iucr.org
##########################################################################

data_Na9Ti20O40
_symmetry_space_group_name_H-M          'P 1'
_cell_length_a                          10.6475328752
_cell_length_b                          8.69304212
_cell_length_c                          10.6475328752
_cell_angle_alpha                       65.9070174234
_cell_angle_beta                        80.4073377387
_cell_angle_gamma                       65.9070174234
_chemical_name_systematic               'Generated by pymatgen'
_symmetry_Int_Tables_number             1
_chemical_formula_structural            Na9Ti20O40
_chemical_formula_sum                   'Na9 Ti20 O40'
_cell_volume                            821.298683369
_cell_formula_units_Z                   1
loop_
  _symmetry_equiv_pos_site_id
  _symmetry_equiv_pos_as_xyz
   1  'x, y, z'
 
loop_
  _atom_site_type_symbol
  _atom_site_label
  _atom_site_symmetry_multiplicity
  _atom_site_fract_x
  _atom_site_fract_y
  _atom_site_fract_z
  _atom_site_attached_hydrogens
  _atom_site_B_iso_or_equiv
  _atom_site_occupancy
   Na  Na1  1  0.149390  0.025541  0.551491  0  .  1
   Na  Na2  1  0.348509  0.225069  0.949390  0  .  1
   Na  Na3  1  0.449918  0.574914  0.650245  0  .  1
   Na  Na4  1  0.249755  0.375168  0.249918  0  .  1
   Na  Na5  1  0.751491  0.622967  0.750610  0  .  1
   Na  Na6  1  0.550000  0.425000  0.350000  0  .  1
   Na  Na7  1  0.850245  0.974841  0.450082  0  .  1
   Na  Na8  1  0.650082  0.775077  0.049755  0  .  1
   Na  Na9  1  0.950610  0.826422  0.148509  0  .  1
   Ti  Ti10  1  0.197734  0.706324  0.899035  0  .  1
   Ti  Ti11  1  0.099035  0.594640  0.702266  0  .  1
   Ti  Ti12  1  0.000950  0.496966  0.503770  0  .  1
   Ti  Ti13  1  0.296830  0.299275  0.602508  0  .  1
   Ti  Ti14  1  0.396230  0.902084  0.800950  0  .  1
   Ti  Ti15  1  0.099050  0.101686  0.196230  0  .  1
   Ti  Ti16  1  0.200676  0.700149  0.400577  0  .  1
   Ti  Ti17  1  0.000965  0.495942  0.997734  0  .  1
   Ti  Ti18  1  0.703770  0.199264  0.899050  0  .  1
   Ti  Ti19  1  0.501010  0.000031  0.500552  0  .  1
   Ti  Ti20  1  0.600577  0.099274  0.699324  0  .  1
   Ti  Ti21  1  0.297492  0.803895  0.096830  0  .  1
   Ti  Ti22  1  0.399448  0.898959  0.301010  0  .  1
   Ti  Ti23  1  0.802508  0.298216  0.603170  0  .  1
   Ti  Ti24  1  0.902266  0.903094  0.800965  0  .  1
   Ti  Ti25  1  0.700552  0.699417  0.398990  0  .  1
   Ti  Ti26  1  0.499423  0.499174  0.000676  0  .  1
   Ti  Ti27  1  0.598990  0.101593  0.199448  0  .  1
   Ti  Ti28  1  0.899324  0.401403  0.299423  0  .  1
   Ti  Ti29  1  0.803170  0.298614  0.097492  0  .  1
   O  O30  1  0.007149  0.737923  0.978205  0  .  1
   O  O31  1  0.178205  0.483872  0.892851  0  .  1
   O  O32  1  0.092851  0.823277  0.721795  0  .  1
   O  O33  1  0.022022  0.716548  0.507760  0  .  1
   O  O34  1  0.106965  0.374283  0.679296  0  .  1
   O  O35  1  0.220704  0.918751  0.906965  0  .  1
   O  O36  1  0.477613  0.746800  0.992607  0  .  1
   O  O37  1  0.077978  0.346330  0.192240  0  .  1
   O  O38  1  0.192607  0.460594  0.422387  0  .  1
   O  O39  1  0.277914  0.545873  0.593155  0  .  1
   O  O40  1  0.392240  0.661429  0.822022  0  .  1
   O  O41  1  0.322549  0.053333  0.606729  0  .  1
   O  O42  1  0.122106  0.852987  0.208230  0  .  1
   O  O43  1  0.207143  0.939196  0.378239  0  .  1
   O  O44  1  0.408230  0.138783  0.777894  0  .  1
   O  O45  1  0.492574  0.224283  0.522191  0  .  1
   O  O46  1  0.377809  0.683143  0.292574  0  .  1
   O  O47  1  0.293271  0.024117  0.122549  0  .  1
   O  O48  1  0.578239  0.882565  0.692857  0  .  1
   O  O49  1  0.691770  0.424907  0.922106  0  .  1
   O  O50  1  0.507337  0.775523  0.478087  0  .  1
   O  O51  1  0.306845  0.576212  0.077914  0  .  1
   O  O52  1  0.707760  0.975692  0.877978  0  .  1
   O  O53  1  0.622387  0.317019  0.707393  0  .  1
   O  O54  1  0.421913  0.117141  0.307337  0  .  1
   O  O55  1  0.879296  0.146421  0.793035  0  .  1
   O  O56  1  0.793155  0.060971  0.622086  0  .  1
   O  O57  1  0.592663  0.860947  0.221913  0  .  1
   O  O58  1  0.678087  0.946389  0.392663  0  .  1
   O  O59  1  0.806729  0.539938  0.577451  0  .  1
   O  O60  1  0.921795  0.654928  0.807149  0  .  1
   O  O61  1  0.607426  0.339048  0.177809  0  .  1
   O  O62  1  0.722191  0.453526  0.407426  0  .  1
   O  O63  1  0.521761  0.253662  0.007143  0  .  1
   O  O64  1  0.777451  0.082612  0.093271  0  .  1
   O  O65  1  0.977894  0.283323  0.491770  0  .  1
   O  O66  1  0.892857  0.624577  0.321761  0  .  1
   O  O67  1  0.907393  0.175587  0.277613  0  .  1
   O  O68  1  0.822086  0.516943  0.106845  0  .  1
   O  O69  1  0.993035  0.260545  0.020704  0  .  1
 
