#\#CIF1.1
##########################################################################
#               Crystallographic Information Format file 
#               Produced by PyCifRW module
# 
#  This is a CIF file.  CIF has been adopted by the International
#  Union of Crystallography as the standard for data archiving and 
#  transmission.
#
#  For information on this file format, follow the CIF links at
#  http://www.iucr.org
##########################################################################

data_Na9V14O35
_symmetry_space_group_name_H-M          'P 1'
_cell_length_a                          5.22175405
_cell_length_b                          15.3636472529
_cell_length_c                          21.0516342794
_cell_angle_alpha                       109.072152374
_cell_angle_beta                        90.0
_cell_angle_gamma                       90.0
_chemical_name_systematic               'Generated by pymatgen'
_symmetry_Int_Tables_number             1
_chemical_formula_structural            Na9V14O35
_chemical_formula_sum                   'Na18 V28 O70'
_cell_volume                            1596.16550714
_cell_formula_units_Z                   2
loop_
  _symmetry_equiv_pos_site_id
  _symmetry_equiv_pos_as_xyz
   1  'x, y, z'
 
loop_
  _atom_site_type_symbol
  _atom_site_label
  _atom_site_symmetry_multiplicity
  _atom_site_fract_x
  _atom_site_fract_y
  _atom_site_fract_z
  _atom_site_attached_hydrogens
  _atom_site_B_iso_or_equiv
  _atom_site_occupancy
   Na  Na1  1  0.409640  0.000000  0.750000  0  .  1
   Na  Na2  1  0.371917  0.569029  0.848471  0  .  1
   Na  Na3  1  0.628083  0.569029  0.348471  0  .  1
   Na  Na4  1  0.621706  0.349271  0.383774  0  .  1
   Na  Na5  1  0.367369  0.866613  0.577544  0  .  1
   Na  Na6  1  0.612737  0.782572  0.302168  0  .  1
   Na  Na7  1  0.632631  0.133387  0.422456  0  .  1
   Na  Na8  1  0.621706  0.650729  0.116226  0  .  1
   Na  Na9  1  0.590360  0.000000  0.250000  0  .  1
   Na  Na10  1  0.378294  0.650729  0.616226  0  .  1
   Na  Na11  1  0.387263  0.782572  0.802168  0  .  1
   Na  Na12  1  0.387263  0.217428  0.697832  0  .  1
   Na  Na13  1  0.632631  0.866613  0.077544  0  .  1
   Na  Na14  1  0.371917  0.430971  0.651529  0  .  1
   Na  Na15  1  0.378294  0.349271  0.883774  0  .  1
   Na  Na16  1  0.367369  0.133387  0.922456  0  .  1
   Na  Na17  1  0.612737  0.217428  0.197832  0  .  1
   Na  Na18  1  0.628083  0.430971  0.151529  0  .  1
   V  V19  1  0.100044  0.699676  0.023871  0  .  1
   V  V20  1  0.854004  0.402850  0.768610  0  .  1
   V  V21  1  0.899572  0.488199  0.565093  0  .  1
   V  V22  1  0.899110  0.276140  0.606876  0  .  1
   V  V23  1  0.082043  0.064293  0.151430  0  .  1
   V  V24  1  0.100428  0.511801  0.434907  0  .  1
   V  V25  1  0.888647  0.908901  0.479618  0  .  1
   V  V26  1  0.082043  0.935707  0.348570  0  .  1
   V  V27  1  0.145996  0.597150  0.231390  0  .  1
   V  V28  1  0.111353  0.091099  0.520382  0  .  1
   V  V29  1  0.111353  0.908901  0.979618  0  .  1
   V  V30  1  0.073862  0.143951  0.317925  0  .  1
   V  V31  1  0.073862  0.856049  0.182075  0  .  1
   V  V32  1  0.899956  0.300324  0.976129  0  .  1
   V  V33  1  0.888647  0.091099  0.020382  0  .  1
   V  V34  1  0.899572  0.511801  0.934907  0  .  1
   V  V35  1  0.899956  0.699676  0.523871  0  .  1
   V  V36  1  0.917957  0.935707  0.848570  0  .  1
   V  V37  1  0.926138  0.143951  0.817925  0  .  1
   V  V38  1  0.100890  0.723860  0.393124  0  .  1
   V  V39  1  0.100044  0.300324  0.476129  0  .  1
   V  V40  1  0.854004  0.597150  0.731390  0  .  1
   V  V41  1  0.100428  0.488199  0.065093  0  .  1
   V  V42  1  0.100890  0.276140  0.106876  0  .  1
   V  V43  1  0.917957  0.064293  0.651430  0  .  1
   V  V44  1  0.926138  0.856049  0.682075  0  .  1
   V  V45  1  0.145996  0.402850  0.268610  0  .  1
   V  V46  1  0.899110  0.723860  0.893124  0  .  1
   O  O47  1  0.413266  0.500301  0.081269  0  .  1
   O  O48  1  0.033368  0.202151  0.010152  0  .  1
   O  O49  1  0.413165  0.711175  0.376831  0  .  1
   O  O50  1  0.035329  0.161404  0.614850  0  .  1
   O  O51  1  0.034127  0.627982  0.927250  0  .  1
   O  O52  1  0.039951  0.416489  0.968535  0  .  1
   O  O53  1  0.955174  0.446960  0.340657  0  .  1
   O  O54  1  0.964671  0.838596  0.385150  0  .  1
   O  O55  1  0.605703  0.861762  0.679410  0  .  1
   O  O56  1  0.044826  0.446960  0.840657  0  .  1
   O  O57  1  0.039432  0.008134  0.941649  0  .  1
   O  O58  1  0.605703  0.138238  0.820590  0  .  1
   O  O59  1  0.951861  0.236280  0.385674  0  .  1
   O  O60  1  0.586734  0.500301  0.581269  0  .  1
   O  O61  1  0.413165  0.288825  0.123169  0  .  1
   O  O62  1  0.965873  0.627982  0.427250  0  .  1
   O  O63  1  0.399581  0.935483  0.342357  0  .  1
   O  O64  1  0.413528  0.709448  0.037227  0  .  1
   O  O65  1  0.953065  0.347072  0.198895  0  .  1
   O  O66  1  0.955174  0.553040  0.159343  0  .  1
   O  O67  1  0.964671  0.161404  0.114850  0  .  1
   O  O68  1  0.580789  0.098175  0.008602  0  .  1
   O  O69  1  0.051623  0.958378  0.673353  0  .  1
   O  O70  1  0.419211  0.098175  0.508602  0  .  1
   O  O71  1  0.048139  0.763720  0.614326  0  .  1
   O  O72  1  0.419211  0.901825  0.991398  0  .  1
   O  O73  1  0.600418  0.935483  0.842357  0  .  1
   O  O74  1  0.622997  0.665236  0.719076  0  .  1
   O  O75  1  0.037185  0.146940  0.738938  0  .  1
   O  O76  1  0.622997  0.334764  0.780924  0  .  1
   O  O77  1  0.965873  0.372018  0.072750  0  .  1
   O  O78  1  0.962815  0.146940  0.238938  0  .  1
   O  O79  1  0.046935  0.347072  0.698895  0  .  1
   O  O80  1  0.039432  0.991866  0.558351  0  .  1
   O  O81  1  0.586472  0.709448  0.537227  0  .  1
   O  O82  1  0.034127  0.372018  0.572750  0  .  1
   O  O83  1  0.960568  0.991866  0.058351  0  .  1
   O  O84  1  0.600418  0.064517  0.657643  0  .  1
   O  O85  1  0.394297  0.861762  0.179410  0  .  1
   O  O86  1  0.580789  0.901825  0.491398  0  .  1
   O  O87  1  0.962815  0.853060  0.261062  0  .  1
   O  O88  1  0.960568  0.008134  0.441649  0  .  1
   O  O89  1  0.046935  0.652928  0.801105  0  .  1
   O  O90  1  0.035329  0.838596  0.885150  0  .  1
   O  O91  1  0.048139  0.236280  0.885674  0  .  1
   O  O92  1  0.586734  0.499699  0.918731  0  .  1
   O  O93  1  0.051623  0.041622  0.826647  0  .  1
   O  O94  1  0.037185  0.853060  0.761062  0  .  1
   O  O95  1  0.586835  0.711175  0.876831  0  .  1
   O  O96  1  0.413266  0.499699  0.418731  0  .  1
   O  O97  1  0.413528  0.290552  0.462773  0  .  1
   O  O98  1  0.039951  0.583511  0.531465  0  .  1
   O  O99  1  0.948377  0.958378  0.173353  0  .  1
   O  O100  1  0.399581  0.064517  0.157643  0  .  1
   O  O101  1  0.960049  0.416489  0.468535  0  .  1
   O  O102  1  0.693307  0.500000  0.750000  0  .  1
   O  O103  1  0.044826  0.553040  0.659343  0  .  1
   O  O104  1  0.377003  0.334764  0.280924  0  .  1
   O  O105  1  0.948377  0.041622  0.326647  0  .  1
   O  O106  1  0.033368  0.797849  0.489848  0  .  1
   O  O107  1  0.966632  0.202151  0.510152  0  .  1
   O  O108  1  0.394297  0.138238  0.320590  0  .  1
   O  O109  1  0.966632  0.797849  0.989848  0  .  1
   O  O110  1  0.586835  0.288825  0.623169  0  .  1
   O  O111  1  0.953065  0.652928  0.301105  0  .  1
   O  O112  1  0.951861  0.763720  0.114326  0  .  1
   O  O113  1  0.586472  0.290552  0.962773  0  .  1
   O  O114  1  0.960049  0.583511  0.031465  0  .  1
   O  O115  1  0.306692  0.500000  0.250000  0  .  1
   O  O116  1  0.377003  0.665236  0.219076  0  .  1
 
