#\#CIF1.1
##########################################################################
#               Crystallographic Information Format file 
#               Produced by PyCifRW module
# 
#  This is a CIF file.  CIF has been adopted by the International
#  Union of Crystallography as the standard for data archiving and 
#  transmission.
#
#  For information on this file format, follow the CIF links at
#  http://www.iucr.org
##########################################################################

data_NaCo2O3
_symmetry_space_group_name_H-M          'P 1'
_cell_length_a                          5.92375011633
_cell_length_b                          5.92375011633
_cell_length_c                          5.16113421
_cell_angle_alpha                       90.0
_cell_angle_beta                        90.0
_cell_angle_gamma                       119.888927507
_chemical_name_systematic               'Generated by pymatgen'
_symmetry_Int_Tables_number             1
_chemical_formula_structural            NaCo2O3
_chemical_formula_sum                   'Na2 Co4 O6'
_cell_volume                            157.019733997
_cell_formula_units_Z                   2
loop_
  _symmetry_equiv_pos_site_id
  _symmetry_equiv_pos_as_xyz
   1  'x, y, z'
 
loop_
  _atom_site_type_symbol
  _atom_site_label
  _atom_site_symmetry_multiplicity
  _atom_site_fract_x
  _atom_site_fract_y
  _atom_site_fract_z
  _atom_site_attached_hydrogens
  _atom_site_B_iso_or_equiv
  _atom_site_occupancy
   Na  Na1  1  0.326959  0.326959  0.995271  0  .  1
   Na  Na2  1  0.673041  0.673041  0.495271  0  .  1
   Co  Co3  1  0.329215  0.994402  0.507884  0  .  1
   Co  Co4  1  0.005598  0.670785  0.007884  0  .  1
   Co  Co5  1  0.994402  0.329215  0.507884  0  .  1
   Co  Co6  1  0.670785  0.005598  0.007884  0  .  1
   O  O7  1  0.050629  0.663321  0.389989  0  .  1
   O  O8  1  0.336679  0.949371  0.889989  0  .  1
   O  O9  1  0.281310  0.281310  0.469882  0  .  1
   O  O10  1  0.718690  0.718690  0.969882  0  .  1
   O  O11  1  0.663321  0.050629  0.389989  0  .  1
   O  O12  1  0.949371  0.336679  0.889989  0  .  1
 
