#\#CIF1.1
##########################################################################
#               Crystallographic Information Format file 
#               Produced by PyCifRW module
# 
#  This is a CIF file.  CIF has been adopted by the International
#  Union of Crystallography as the standard for data archiving and 
#  transmission.
#
#  For information on this file format, follow the CIF links at
#  http://www.iucr.org
##########################################################################

data_NaCr6O11
_symmetry_space_group_name_H-M          'P 1'
_cell_length_a                          5.8248059934
_cell_length_b                          5.82348875493
_cell_length_c                          12.9997322482
_cell_angle_alpha                       89.9326912723
_cell_angle_beta                        90.0336424025
_cell_angle_gamma                       119.992517279
_chemical_name_systematic               'Generated by pymatgen'
_symmetry_Int_Tables_number             1
_chemical_formula_structural            NaCr6O11
_chemical_formula_sum                   'Na2 Cr12 O22'
_cell_volume                            381.911017049
_cell_formula_units_Z                   2
loop_
  _symmetry_equiv_pos_site_id
  _symmetry_equiv_pos_as_xyz
   1  'x, y, z'
 
loop_
  _atom_site_type_symbol
  _atom_site_label
  _atom_site_symmetry_multiplicity
  _atom_site_fract_x
  _atom_site_fract_y
  _atom_site_fract_z
  _atom_site_attached_hydrogens
  _atom_site_B_iso_or_equiv
  _atom_site_occupancy
   Na  Na1  1  0.331872  0.665942  0.253843  0  .  1
   Na  Na2  1  0.668128  0.334070  0.753843  0  .  1
   Cr  Cr3  1  0.000110  0.500036  0.000430  0  .  1
   Cr  Cr4  1  0.333733  0.666886  0.750309  0  .  1
   Cr  Cr5  1  0.999697  0.000143  0.145816  0  .  1
   Cr  Cr6  1  0.999719  0.999673  0.354943  0  .  1
   Cr  Cr7  1  0.000303  0.000446  0.645816  0  .  1
   Cr  Cr8  1  0.000281  -0.000046  0.854943  0  .  1
   Cr  Cr9  1  0.499983  -0.000064  0.000436  0  .  1
   Cr  Cr10  1  0.500025  0.500007  0.000428  0  .  1
   Cr  Cr11  1  0.500017  0.499953  0.500436  0  .  1
   Cr  Cr12  1  0.666267  0.333153  0.250309  0  .  1
   Cr  Cr13  1  0.499975  -0.000019  0.500428  0  .  1
   Cr  Cr14  1  0.999890  0.499927  0.500430  0  .  1
   O  O15  1  0.153827  0.847403  0.750302  0  .  1
   O  O16  1  0.173486  0.824674  0.422377  0  .  1
   O  O17  1  0.174708  0.825302  0.078539  0  .  1
   O  O18  1  0.333327  0.666781  0.913101  0  .  1
   O  O19  1  0.333285  0.666518  0.587716  0  .  1
   O  O20  1  0.153852  0.306437  0.750360  0  .  1
   O  O21  1  0.175127  0.350346  0.421744  0  .  1
   O  O22  1  0.173086  0.347997  0.077941  0  .  1
   O  O23  1  0.305842  0.152926  0.250335  0  .  1
   O  O24  1  0.652258  0.827048  0.077702  0  .  1
   O  O25  1  0.651340  0.824782  0.422591  0  .  1
   O  O26  1  0.348660  0.173442  0.922591  0  .  1
   O  O27  1  0.347742  0.174791  0.577702  0  .  1
   O  O28  1  0.694158  0.847085  0.750335  0  .  1
   O  O29  1  0.846173  0.693575  0.250302  0  .  1
   O  O30  1  0.666715  0.333234  0.087716  0  .  1
   O  O31  1  0.825292  0.650594  0.578539  0  .  1
   O  O32  1  0.666673  0.333454  0.413101  0  .  1
   O  O33  1  0.826514  0.651188  0.922377  0  .  1
   O  O34  1  0.826914  0.174911  0.577941  0  .  1
   O  O35  1  0.824873  0.175220  0.921744  0  .  1
   O  O36  1  0.846148  0.152586  0.250360  0  .  1
 
