#\#CIF1.1
##########################################################################
#               Crystallographic Information Format file 
#               Produced by PyCifRW module
# 
#  This is a CIF file.  CIF has been adopted by the International
#  Union of Crystallography as the standard for data archiving and 
#  transmission.
#
#  For information on this file format, follow the CIF links at
#  http://www.iucr.org
##########################################################################

data_NaCr4O12
_symmetry_space_group_name_H-M          'P 1'
_cell_length_a                          8.78329475
_cell_length_b                          16.0610829934
_cell_length_c                          8.78329475
_cell_angle_alpha                       74.1312848877
_cell_angle_beta                        90.0
_cell_angle_gamma                       105.868718858
_chemical_name_systematic               'Generated by pymatgen'
_symmetry_Int_Tables_number             1
_chemical_formula_structural            NaCr4O12
_chemical_formula_sum                   'Na4 Cr16 O48'
_cell_volume                            1142.66422429
_cell_formula_units_Z                   4
loop_
  _symmetry_equiv_pos_site_id
  _symmetry_equiv_pos_as_xyz
   1  'x, y, z'
 
loop_
  _atom_site_type_symbol
  _atom_site_label
  _atom_site_symmetry_multiplicity
  _atom_site_fract_x
  _atom_site_fract_y
  _atom_site_fract_z
  _atom_site_attached_hydrogens
  _atom_site_B_iso_or_equiv
  _atom_site_occupancy
   Na  Na1  1  0.124944  0.749889  0.125056  0  .  1
   Na  Na2  1  0.374944  0.249889  0.375056  0  .  1
   Na  Na3  1  0.625056  0.750111  0.624944  0  .  1
   Na  Na4  1  0.875056  0.250111  0.874944  0  .  1
   Cr  Cr5  1  0.162304  0.097305  0.094417  0  .  1
   Cr  Cr6  1  0.405583  0.597305  0.064998  0  .  1
   Cr  Cr7  1  0.090992  0.399988  0.163116  0  .  1
   Cr  Cr8  1  0.663116  0.100012  0.308995  0  .  1
   Cr  Cr9  1  0.564998  0.902695  0.191722  0  .  1
   Cr  Cr10  1  0.936897  0.100012  0.590992  0  .  1
   Cr  Cr11  1  0.808995  0.399988  0.436897  0  .  1
   Cr  Cr12  1  0.691722  0.597305  0.337696  0  .  1
   Cr  Cr13  1  0.308278  0.402695  0.662304  0  .  1
   Cr  Cr14  1  0.191005  0.600012  0.563103  0  .  1
   Cr  Cr15  1  0.063103  0.899988  0.409008  0  .  1
   Cr  Cr16  1  0.435002  0.097305  0.808278  0  .  1
   Cr  Cr17  1  0.336884  0.899988  0.691005  0  .  1
   Cr  Cr18  1  0.909008  0.600012  0.836884  0  .  1
   Cr  Cr19  1  0.594417  0.402695  0.935002  0  .  1
   Cr  Cr20  1  0.837696  0.902695  0.905583  0  .  1
   O  O21  1  0.994166  0.365928  0.025470  0  .  1
   O  O22  1  0.768874  0.174539  0.157286  0  .  1
   O  O23  1  0.070955  0.001017  0.245986  0  .  1
   O  O24  1  0.268452  0.174066  0.164665  0  .  1
   O  O25  1  0.498034  0.366421  0.106911  0  .  1
   O  O26  1  0.254014  0.501017  0.069939  0  .  1
   O  O27  1  0.168176  0.325461  0.268874  0  .  1
   O  O28  1  0.335335  0.674066  0.094386  0  .  1
   O  O29  1  0.525470  0.134072  0.371761  0  .  1
   O  O30  1  0.973332  0.866421  0.001965  0  .  1
   O  O31  1  0.963809  0.427620  0.286191  0  .  1
   O  O32  1  0.714085  0.928170  0.035915  0  .  1
   O  O33  1  0.535915  0.571830  0.214085  0  .  1
   O  O34  1  0.786191  0.072380  0.463809  0  .  1
   O  O35  1  0.393089  0.866421  0.131614  0  .  1
   O  O36  1  0.108602  0.134072  0.494166  0  .  1
   O  O37  1  0.838731  0.674066  0.231548  0  .  1
   O  O38  1  0.657286  0.325461  0.405665  0  .  1
   O  O39  1  0.747003  0.501017  0.429045  0  .  1
   O  O40  1  0.368386  0.366421  0.526668  0  .  1
   O  O41  1  0.128239  0.634072  0.391398  0  .  1
   O  O42  1  0.405614  0.174066  0.661269  0  .  1
   O  O43  1  0.094335  0.825461  0.331824  0  .  1
   O  O44  1  0.430061  0.001017  0.752997  0  .  1
   O  O45  1  0.569939  0.998983  0.247003  0  .  1
   O  O46  1  0.905665  0.174539  0.668176  0  .  1
   O  O47  1  0.594386  0.825934  0.338731  0  .  1
   O  O48  1  0.871761  0.365928  0.608602  0  .  1
   O  O49  1  0.631614  0.633579  0.473332  0  .  1
   O  O50  1  0.252997  0.498983  0.570955  0  .  1
   O  O51  1  0.342714  0.674539  0.594335  0  .  1
   O  O52  1  0.161269  0.325934  0.768452  0  .  1
   O  O53  1  0.891398  0.865928  0.505834  0  .  1
   O  O54  1  0.606911  0.133579  0.868386  0  .  1
   O  O55  1  0.213809  0.927620  0.536191  0  .  1
   O  O56  1  0.036191  0.572380  0.713809  0  .  1
   O  O57  1  0.285915  0.071830  0.964085  0  .  1
   O  O58  1  0.464085  0.428170  0.785915  0  .  1
   O  O59  1  0.026668  0.133579  0.998035  0  .  1
   O  O60  1  0.474530  0.865928  0.628239  0  .  1
   O  O61  1  0.664665  0.325934  0.905614  0  .  1
   O  O62  1  0.831824  0.674539  0.731126  0  .  1
   O  O63  1  0.745986  0.498983  0.930061  0  .  1
   O  O64  1  0.501965  0.633579  0.893089  0  .  1
   O  O65  1  0.731548  0.825934  0.835335  0  .  1
   O  O66  1  0.929045  0.998983  0.754014  0  .  1
   O  O67  1  0.231126  0.825461  0.842714  0  .  1
   O  O68  1  0.005834  0.634072  0.974530  0  .  1
 
