#\#CIF1.1
##########################################################################
#               Crystallographic Information Format file 
#               Produced by PyCifRW module
# 
#  This is a CIF file.  CIF has been adopted by the International
#  Union of Crystallography as the standard for data archiving and 
#  transmission.
#
#  For information on this file format, follow the CIF links at
#  http://www.iucr.org
##########################################################################

data_NaCr4O8
_symmetry_space_group_name_H-M          'P 1'
_cell_length_a                          2.98833156
_cell_length_b                          7.14550530398
_cell_length_c                          7.10686813235
_cell_angle_alpha                       92.6146922174
_cell_angle_beta                        102.136564206
_cell_angle_gamma                       77.9300517514
_chemical_name_systematic               'Generated by pymatgen'
_symmetry_Int_Tables_number             1
_chemical_formula_structural            NaCr4O8
_chemical_formula_sum                   'Na1 Cr4 O8'
_cell_volume                            145.08207891
_cell_formula_units_Z                   1
loop_
  _symmetry_equiv_pos_site_id
  _symmetry_equiv_pos_as_xyz
   1  'x, y, z'
 
loop_
  _atom_site_type_symbol
  _atom_site_label
  _atom_site_symmetry_multiplicity
  _atom_site_fract_x
  _atom_site_fract_y
  _atom_site_fract_z
  _atom_site_attached_hydrogens
  _atom_site_B_iso_or_equiv
  _atom_site_occupancy
   Na  Na1  1  0.500000  0.000000  0.000000  0  .  1
   Cr  Cr2  1  0.347875  0.817613  0.513363  0  .  1
   Cr  Cr3  1  0.835232  0.513257  0.183720  0  .  1
   Cr  Cr4  1  0.164768  0.486743  0.816280  0  .  1
   Cr  Cr5  1  0.652125  0.182387  0.486637  0  .  1
   O  O6  1  0.848140  0.953045  0.649326  0  .  1
   O  O7  1  0.837132  0.702939  0.377204  0  .  1
   O  O8  1  0.199897  0.647582  0.047376  0  .  1
   O  O9  1  0.539915  0.622347  0.702176  0  .  1
   O  O10  1  0.460085  0.377653  0.297824  0  .  1
   O  O11  1  0.800103  0.352418  0.952624  0  .  1
   O  O12  1  0.162868  0.297061  0.622796  0  .  1
   O  O13  1  0.151860  0.046955  0.350674  0  .  1
 
