#\#CIF1.1
##########################################################################
#               Crystallographic Information Format file 
#               Produced by PyCifRW module
# 
#  This is a CIF file.  CIF has been adopted by the International
#  Union of Crystallography as the standard for data archiving and 
#  transmission.
#
#  For information on this file format, follow the CIF links at
#  http://www.iucr.org
##########################################################################

data_NaCr3O8
_symmetry_space_group_name_H-M          'P 1'
_cell_length_a                          5.16313240824
_cell_length_b                          5.16313240429
_cell_length_c                          7.02568524658
_cell_angle_alpha                       90.0841229341
_cell_angle_beta                        90.0841229289
_cell_angle_gamma                       64.9868603136
_chemical_name_systematic               'Generated by pymatgen'
_symmetry_Int_Tables_number             1
_chemical_formula_structural            NaCr3O8
_chemical_formula_sum                   'Na1 Cr3 O8'
_cell_volume                            169.72421591
_cell_formula_units_Z                   1
loop_
  _symmetry_equiv_pos_site_id
  _symmetry_equiv_pos_as_xyz
   1  'x, y, z'
 
loop_
  _atom_site_type_symbol
  _atom_site_label
  _atom_site_symmetry_multiplicity
  _atom_site_fract_x
  _atom_site_fract_y
  _atom_site_fract_z
  _atom_site_attached_hydrogens
  _atom_site_B_iso_or_equiv
  _atom_site_occupancy
   O  O1  1  0.784942  0.280251  0.704452  0  .  1
   O  O2  1  0.719749  0.215058  0.295548  0  .  1
   O  O3  1  0.215058  0.719749  0.295548  0  .  1
   O  O4  1  0.280251  0.784942  0.704452  0  .  1
   O  O5  1  0.223657  0.223657  0.443724  0  .  1
   O  O6  1  0.776343  0.776343  0.556276  0  .  1
   O  O7  1  0.721687  0.721687  0.932311  0  .  1
   O  O8  1  0.278313  0.278313  0.067689  0  .  1
   Na  Na9  1  0.000000  0.000000  0.000000  0  .  1
   Cr  Cr10  1  0.642736  0.642736  0.724284  0  .  1
   Cr  Cr11  1  0.000000  0.000000  0.500000  0  .  1
   Cr  Cr12  1  0.357264  0.357264  0.275716  0  .  1
 
