#\#CIF1.1
##########################################################################
#               Crystallographic Information Format file 
#               Produced by PyCifRW module
# 
#  This is a CIF file.  CIF has been adopted by the International
#  Union of Crystallography as the standard for data archiving and 
#  transmission.
#
#  For information on this file format, follow the CIF links at
#  http://www.iucr.org
##########################################################################

data_NaCr2O4
_symmetry_space_group_name_H-M          'P 1'
_cell_length_a                          6.13072215589
_cell_length_b                          6.13072215589
_cell_length_c                          6.13072215589
_cell_angle_alpha                       60.0
_cell_angle_beta                        90.0
_cell_angle_gamma                       120.0
_chemical_name_systematic               'Generated by pymatgen'
_symmetry_Int_Tables_number             1
_chemical_formula_structural            NaCr2O4
_chemical_formula_sum                   'Na2 Cr4 O8'
_cell_volume                            162.937071077
_cell_formula_units_Z                   2
loop_
  _symmetry_equiv_pos_site_id
  _symmetry_equiv_pos_as_xyz
   1  'x, y, z'
 
loop_
  _atom_site_type_symbol
  _atom_site_label
  _atom_site_symmetry_multiplicity
  _atom_site_fract_x
  _atom_site_fract_y
  _atom_site_fract_z
  _atom_site_attached_hydrogens
  _atom_site_B_iso_or_equiv
  _atom_site_occupancy
   Na  Na1  1  0.625000  0.250000  0.625000  0  .  1
   Na  Na2  1  0.375000  0.750000  0.375000  0  .  1
   Cr  Cr3  1  0.500000  0.500000  0.000000  0  .  1
   Cr  Cr4  1  0.000000  0.000000  0.000000  0  .  1
   Cr  Cr5  1  0.000000  0.500000  0.000000  0  .  1
   Cr  Cr6  1  0.000000  0.000000  0.500000  0  .  1
   O  O7  1  0.811950  0.041300  0.229350  0  .  1
   O  O8  1  0.770650  0.541300  0.188050  0  .  1
   O  O9  1  0.229350  0.041300  0.229350  0  .  1
   O  O10  1  0.229350  0.458700  0.229350  0  .  1
   O  O11  1  0.770650  0.541300  0.770650  0  .  1
   O  O12  1  0.770650  0.958700  0.770650  0  .  1
   O  O13  1  0.229350  0.458700  0.811950  0  .  1
   O  O14  1  0.188050  0.958700  0.770650  0  .  1
 
