#\#CIF1.1
##########################################################################
#               Crystallographic Information Format file 
#               Produced by PyCifRW module
# 
#  This is a CIF file.  CIF has been adopted by the International
#  Union of Crystallography as the standard for data archiving and 
#  transmission.
#
#  For information on this file format, follow the CIF links at
#  http://www.iucr.org
##########################################################################

data_NaCrS2
_symmetry_space_group_name_H-M          'P 1'
_cell_length_a                          33.673523085
_cell_length_b                          14.0380944451
_cell_length_c                          16.9309677588
_cell_angle_alpha                       172.175377438
_cell_angle_beta                        173.953065017
_cell_angle_gamma                       4.97506564628
_chemical_name_systematic               'Generated by pymatgen'
_symmetry_Int_Tables_number             1
_chemical_formula_structural            NaCrS2
_chemical_formula_sum                   'Na1 Cr1 S2'
_cell_volume                            73.1164242274
_cell_formula_units_Z                   1
loop_
  _symmetry_equiv_pos_site_id
  _symmetry_equiv_pos_as_xyz
   1  'x, y, z'
 
loop_
  _atom_site_type_symbol
  _atom_site_label
  _atom_site_symmetry_multiplicity
  _atom_site_fract_x
  _atom_site_fract_y
  _atom_site_fract_z
  _atom_site_attached_hydrogens
  _atom_site_B_iso_or_equiv
  _atom_site_occupancy
   Na  Na1  1  0.000000  0.500000  0.000000  0  .  1
   Cr  Cr2  1  0.000000  0.000000  0.000000  0  .  1
   S  S3  1  0.723059  0.358252  1.000000  0  .  1
   S  S4  1  0.276941  -0.358252  0.000000  0  .  1
 
