#\#CIF1.1
##########################################################################
#               Crystallographic Information Format file 
#               Produced by PyCifRW module
# 
#  This is a CIF file.  CIF has been adopted by the International
#  Union of Crystallography as the standard for data archiving and 
#  transmission.
#
#  For information on this file format, follow the CIF links at
#  http://www.iucr.org
##########################################################################

data_NaCu3O4
_symmetry_space_group_name_H-M          'P 1'
_cell_length_a                          6.04176376
_cell_length_b                          6.04176376
_cell_length_c                          8.79674797
_cell_angle_alpha                       90.0
_cell_angle_beta                        90.0
_cell_angle_gamma                       90.0
_chemical_name_systematic               'Generated by pymatgen'
_symmetry_Int_Tables_number             1
_chemical_formula_structural            NaCu3O4
_chemical_formula_sum                   'Na4 Cu12 O16'
_cell_volume                            321.106893562
_cell_formula_units_Z                   4
loop_
  _symmetry_equiv_pos_site_id
  _symmetry_equiv_pos_as_xyz
   1  'x, y, z'
 
loop_
  _atom_site_type_symbol
  _atom_site_label
  _atom_site_symmetry_multiplicity
  _atom_site_fract_x
  _atom_site_fract_y
  _atom_site_fract_z
  _atom_site_attached_hydrogens
  _atom_site_B_iso_or_equiv
  _atom_site_occupancy
   Na  Na1  1  0.248573  0.500000  0.750000  0  .  1
   Na  Na2  1  0.500000  0.248573  0.000000  0  .  1
   Na  Na3  1  0.500000  0.751427  0.500000  0  .  1
   Na  Na4  1  0.751427  0.500000  0.250000  0  .  1
   Cu  Cu5  1  0.000000  0.245778  0.000000  0  .  1
   Cu  Cu6  1  0.000000  0.750603  0.000000  0  .  1
   Cu  Cu7  1  0.000000  0.249397  0.500000  0  .  1
   Cu  Cu8  1  0.000000  0.754222  0.500000  0  .  1
   Cu  Cu9  1  0.247813  0.500000  0.250000  0  .  1
   Cu  Cu10  1  0.245778  0.000000  0.750000  0  .  1
   Cu  Cu11  1  0.249397  0.000000  0.250000  0  .  1
   Cu  Cu12  1  0.500000  0.247813  0.500000  0  .  1
   Cu  Cu13  1  0.500000  0.752187  0.000000  0  .  1
   Cu  Cu14  1  0.750603  0.000000  0.750000  0  .  1
   Cu  Cu15  1  0.754222  0.000000  0.250000  0  .  1
   Cu  Cu16  1  0.752187  0.500000  0.750000  0  .  1
   O  O17  1  0.973518  0.228665  0.782419  0  .  1
   O  O18  1  0.973518  0.771335  0.717581  0  .  1
   O  O19  1  0.228563  0.524638  0.022822  0  .  1
   O  O20  1  0.228563  0.475362  0.477178  0  .  1
   O  O21  1  0.228665  0.973518  0.967581  0  .  1
   O  O22  1  0.228665  0.026482  0.532419  0  .  1
   O  O23  1  0.524638  0.228563  0.727178  0  .  1
   O  O24  1  0.524638  0.771437  0.772822  0  .  1
   O  O25  1  0.475362  0.228563  0.272822  0  .  1
   O  O26  1  0.475362  0.771437  0.227178  0  .  1
   O  O27  1  0.771335  0.026482  0.467581  0  .  1
   O  O28  1  0.771335  0.973518  0.032419  0  .  1
   O  O29  1  0.771437  0.524638  0.977178  0  .  1
   O  O30  1  0.771437  0.475362  0.522822  0  .  1
   O  O31  1  0.026482  0.228665  0.217581  0  .  1
   O  O32  1  0.026482  0.771335  0.282419  0  .  1
 
