#\#CIF1.1
##########################################################################
#               Crystallographic Information Format file 
#               Produced by PyCifRW module
# 
#  This is a CIF file.  CIF has been adopted by the International
#  Union of Crystallography as the standard for data archiving and 
#  transmission.
#
#  For information on this file format, follow the CIF links at
#  http://www.iucr.org
##########################################################################

data_NaCu2O3
_symmetry_space_group_name_H-M          'P 1'
_cell_length_a                          6.75019035322
_cell_length_b                          5.23214624921
_cell_length_c                          10.1497442726
_cell_angle_alpha                       85.3284508585
_cell_angle_beta                        138.733429416
_cell_angle_gamma                       128.495127552
_chemical_name_systematic               'Generated by pymatgen'
_symmetry_Int_Tables_number             1
_chemical_formula_structural            NaCu2O3
_chemical_formula_sum                   'Na2 Cu4 O6'
_cell_volume                            122.697750693
_cell_formula_units_Z                   2
loop_
  _symmetry_equiv_pos_site_id
  _symmetry_equiv_pos_as_xyz
   1  'x, y, z'
 
loop_
  _atom_site_type_symbol
  _atom_site_label
  _atom_site_symmetry_multiplicity
  _atom_site_fract_x
  _atom_site_fract_y
  _atom_site_fract_z
  _atom_site_attached_hydrogens
  _atom_site_B_iso_or_equiv
  _atom_site_occupancy
   Na  Na1  1  0.836480  0.000125  0.168223  0  .  1
   Na  Na2  1  0.163136  0.000065  0.831551  0  .  1
   Cu  Cu3  1  0.329310  0.500150  0.664616  0  .  1
   Cu  Cu4  1  0.670652  0.500025  0.335379  0  .  1
   Cu  Cu5  1  -0.000014  0.499864  0.999955  0  .  1
   Cu  Cu6  1  0.499764  0.000111  0.499857  0  .  1
   O  O7  1  0.568347  0.760412  0.381649  0  .  1
   O  O8  1  0.431057  0.239671  0.617971  0  .  1
   O  O9  1  0.951738  0.760690  0.073349  0  .  1
   O  O10  1  0.897651  0.398130  0.316780  0  .  1
   O  O11  1  0.048228  0.240141  0.926712  0  .  1
   O  O12  1  0.101537  0.602062  0.682819  0  .  1
 
