#\#CIF1.1
##########################################################################
#               Crystallographic Information Format file 
#               Produced by PyCifRW module
# 
#  This is a CIF file.  CIF has been adopted by the International
#  Union of Crystallography as the standard for data archiving and 
#  transmission.
#
#  For information on this file format, follow the CIF links at
#  http://www.iucr.org
##########################################################################

data_NaCuO
_symmetry_space_group_name_H-M          'P 1'
_cell_length_a                          4.72753955099
_cell_length_b                          6.70111235028
_cell_length_c                          6.7011123546
_cell_angle_alpha                       82.8523012669
_cell_angle_beta                        69.3448251384
_cell_angle_gamma                       69.3448250619
_chemical_name_systematic               'Generated by pymatgen'
_symmetry_Int_Tables_number             1
_chemical_formula_structural            NaCuO
_chemical_formula_sum                   'Na4 Cu4 O4'
_cell_volume                            185.875032631
_cell_formula_units_Z                   4
loop_
  _symmetry_equiv_pos_site_id
  _symmetry_equiv_pos_as_xyz
   1  'x, y, z'
 
loop_
  _atom_site_type_symbol
  _atom_site_label
  _atom_site_symmetry_multiplicity
  _atom_site_fract_x
  _atom_site_fract_y
  _atom_site_fract_z
  _atom_site_attached_hydrogens
  _atom_site_B_iso_or_equiv
  _atom_site_occupancy
   O  O1  1  0.455391  0.794555  0.794555  0  .  1
   O  O2  1  0.750053  0.794555  0.205445  0  .  1
   O  O3  1  0.750053  0.205445  0.794555  0  .  1
   O  O4  1  0.044502  0.205445  0.205445  0  .  1
   Na  Na5  1  0.924041  0.825904  0.825904  0  .  1
   Na  Na6  1  0.250054  0.825904  0.174096  0  .  1
   Na  Na7  1  0.250054  0.174096  0.825904  0  .  1
   Na  Na8  1  0.575850  0.174096  0.174096  0  .  1
   Cu  Cu9  1  0.898667  0.500000  0.202666  0  .  1
   Cu  Cu10  1  0.898667  0.202666  0.500000  0  .  1
   Cu  Cu11  1  0.601333  0.797334  0.500000  0  .  1
   Cu  Cu12  1  0.601333  0.500000  0.797334  0  .  1
 
