#\#CIF1.1
##########################################################################
#               Crystallographic Information Format file 
#               Produced by PyCifRW module
# 
#  This is a CIF file.  CIF has been adopted by the International
#  Union of Crystallography as the standard for data archiving and 
#  transmission.
#
#  For information on this file format, follow the CIF links at
#  http://www.iucr.org
##########################################################################

data_NaFeS2
_symmetry_space_group_name_H-M          'P 1'
_cell_length_a                          5.45809613496
_cell_length_b                          6.84078590575
_cell_length_c                          7.09010388532
_cell_angle_alpha                       118.843437573
_cell_angle_beta                        112.63811971
_cell_angle_gamma                       89.9999999714
_chemical_name_systematic               'Generated by pymatgen'
_symmetry_Int_Tables_number             1
_chemical_formula_structural            NaFeS2
_chemical_formula_sum                   'Na2 Fe2 S4'
_cell_volume                            208.298615485
_cell_formula_units_Z                   2
loop_
  _symmetry_equiv_pos_site_id
  _symmetry_equiv_pos_as_xyz
   1  'x, y, z'
 
loop_
  _atom_site_type_symbol
  _atom_site_label
  _atom_site_symmetry_multiplicity
  _atom_site_fract_x
  _atom_site_fract_y
  _atom_site_fract_z
  _atom_site_attached_hydrogens
  _atom_site_B_iso_or_equiv
  _atom_site_occupancy
   Na  Na1  1  0.299439  0.299439  0.598878  0  .  1
   Na  Na2  1  0.700561  0.700561  0.401122  0  .  1
   S  S3  1  0.848501  0.283912  0.210307  0  .  1
   S  S4  1  0.361807  0.926395  0.210307  0  .  1
   S  S5  1  0.638193  0.716088  0.789693  0  .  1
   S  S6  1  0.151499  0.073605  0.789693  0  .  1
   Fe  Fe7  1  0.000000  0.000000  0.000000  0  .  1
   Fe  Fe8  1  0.500000  0.000000  0.000000  0  .  1
 
