#\#CIF1.1
##########################################################################
#               Crystallographic Information Format file 
#               Produced by PyCifRW module
# 
#  This is a CIF file.  CIF has been adopted by the International
#  Union of Crystallography as the standard for data archiving and 
#  transmission.
#
#  For information on this file format, follow the CIF links at
#  http://www.iucr.org
##########################################################################

data_NaFe11O17
_symmetry_space_group_name_H-M          'P 1'
_cell_length_a                          6.01342973984
_cell_length_b                          6.0064686112
_cell_length_c                          23.7725324378
_cell_angle_alpha                       90.1757106638
_cell_angle_beta                        89.8066201425
_cell_angle_gamma                       120.030074062
_chemical_name_systematic               'Generated by pymatgen'
_symmetry_Int_Tables_number             1
_chemical_formula_structural            NaFe11O17
_chemical_formula_sum                   'Na2 Fe22 O34'
_cell_volume                            743.383331315
_cell_formula_units_Z                   2
loop_
  _symmetry_equiv_pos_site_id
  _symmetry_equiv_pos_as_xyz
   1  'x, y, z'
 
loop_
  _atom_site_type_symbol
  _atom_site_label
  _atom_site_symmetry_multiplicity
  _atom_site_fract_x
  _atom_site_fract_y
  _atom_site_fract_z
  _atom_site_attached_hydrogens
  _atom_site_B_iso_or_equiv
  _atom_site_occupancy
   Na  Na1  1  0.333498  0.666609  0.749168  0  .  1
   Na  Na2  1  0.666471  0.332666  0.250051  0  .  1
   Fe  Fe3  1  0.166454  0.832402  0.606801  0  .  1
   Fe  Fe4  1  0.167827  0.832928  0.894520  0  .  1
   Fe  Fe5  1  0.333112  0.665135  0.174466  0  .  1
   Fe  Fe6  1  0.332954  0.667641  0.025524  0  .  1
   Fe  Fe7  1  0.998656  0.001264  0.000383  0  .  1
   Fe  Fe8  1  0.999687  0.999858  0.500028  0  .  1
   Fe  Fe9  1  0.332981  0.666937  0.324782  0  .  1
   Fe  Fe10  1  0.333316  0.667506  0.474123  0  .  1
   Fe  Fe11  1  0.166762  0.334322  0.606579  0  .  1
   Fe  Fe12  1  0.167804  0.335143  0.894455  0  .  1
   Fe  Fe13  1  0.336772  0.165369  0.102951  0  .  1
   Fe  Fe14  1  0.333949  0.167179  0.393201  0  .  1
   Fe  Fe15  1  0.665565  0.833119  0.606851  0  .  1
   Fe  Fe16  1  0.667303  0.833730  0.894621  0  .  1
   Fe  Fe17  1  0.832507  0.665927  0.393496  0  .  1
   Fe  Fe18  1  0.832219  0.668157  0.106243  0  .  1
   Fe  Fe19  1  0.664912  0.332785  0.674267  0  .  1
   Fe  Fe20  1  0.667147  0.333280  0.825011  0  .  1
   Fe  Fe21  1  0.666153  0.332038  0.525815  0  .  1
   Fe  Fe22  1  0.665265  0.332630  0.974711  0  .  1
   Fe  Fe23  1  0.832608  0.167032  0.393084  0  .  1
   Fe  Fe24  1  0.835933  0.167463  0.106152  0  .  1
   O  O25  1  0.154662  0.850349  0.050166  0  .  1
   O  O26  1  0.990823  0.494562  0.352403  0  .  1
   O  O27  1  0.015288  0.508147  0.649122  0  .  1
   O  O28  1  0.986344  0.495691  0.147187  0  .  1
   O  O29  1  0.153199  0.846017  0.450187  0  .  1
   O  O30  1  0.012760  0.505828  0.852909  0  .  1
   O  O31  1  0.154106  0.308079  0.450252  0  .  1
   O  O32  1  0.334028  0.666134  0.250377  0  .  1
   O  O33  1  0.012072  0.007605  0.142746  0  .  1
   O  O34  1  0.000797  0.999331  0.355150  0  .  1
   O  O35  1  0.999647  0.000359  0.644824  0  .  1
   O  O36  1  0.001885  0.000462  0.856466  0  .  1
   O  O37  1  0.334362  0.666718  0.555574  0  .  1
   O  O38  1  0.331609  0.666350  0.945395  0  .  1
   O  O39  1  0.149175  0.312107  0.048559  0  .  1
   O  O40  1  0.307381  0.153880  0.549815  0  .  1
   O  O41  1  0.306591  0.153271  0.951066  0  .  1
   O  O42  1  0.500780  0.487312  0.146488  0  .  1
   O  O43  1  0.503625  0.495694  0.351484  0  .  1
   O  O44  1  0.494632  0.504020  0.648527  0  .  1
   O  O45  1  0.494966  0.506714  0.852782  0  .  1
   O  O46  1  0.691061  0.845106  0.049592  0  .  1
   O  O47  1  0.692164  0.845742  0.450246  0  .  1
   O  O48  1  0.512784  0.008913  0.147932  0  .  1
   O  O49  1  0.505944  0.009751  0.350802  0  .  1
   O  O50  1  0.491907  0.988002  0.648820  0  .  1
   O  O51  1  0.665371  0.332566  0.444384  0  .  1
   O  O52  1  0.495377  0.988083  0.852743  0  .  1
   O  O53  1  0.668297  0.333689  0.749287  0  .  1
   O  O54  1  0.658760  0.330361  0.055579  0  .  1
   O  O55  1  0.844840  0.691798  0.951074  0  .  1
   O  O56  1  0.845350  0.691135  0.549886  0  .  1
   O  O57  1  0.843402  0.151468  0.950970  0  .  1
   O  O58  1  0.846255  0.153830  0.549921  0  .  1
 
