#\#CIF1.1
##########################################################################
#               Crystallographic Information Format file 
#               Produced by PyCifRW module
# 
#  This is a CIF file.  CIF has been adopted by the International
#  Union of Crystallography as the standard for data archiving and 
#  transmission.
#
#  For information on this file format, follow the CIF links at
#  http://www.iucr.org
##########################################################################

data_NaFeO3
_symmetry_space_group_name_H-M          'P 1'
_cell_length_a                          5.08775914
_cell_length_b                          6.04125105313
_cell_length_c                          5.08775983018
_cell_angle_alpha                       114.903102171
_cell_angle_beta                        59.9999978313
_cell_angle_gamma                       114.903105903
_chemical_name_systematic               'Generated by pymatgen'
_symmetry_Int_Tables_number             1
_chemical_formula_structural            NaFeO3
_chemical_formula_sum                   'Na2 Fe2 O6'
_cell_volume                            118.341987537
_cell_formula_units_Z                   2
loop_
  _symmetry_equiv_pos_site_id
  _symmetry_equiv_pos_as_xyz
   1  'x, y, z'
 
loop_
  _atom_site_type_symbol
  _atom_site_label
  _atom_site_symmetry_multiplicity
  _atom_site_fract_x
  _atom_site_fract_y
  _atom_site_fract_z
  _atom_site_attached_hydrogens
  _atom_site_B_iso_or_equiv
  _atom_site_occupancy
   Na  Na1  1  0.639720  0.919161  0.639720  0  .  1
   Na  Na2  1  0.360279  0.080839  0.360279  0  .  1
   Fe  Fe3  1  0.163102  0.489307  0.163102  0  .  1
   Fe  Fe4  1  0.836898  0.510693  0.836898  0  .  1
   O  O5  1  0.038519  0.298601  0.439818  0  .  1
   O  O6  1  0.560182  0.701399  0.179737  0  .  1
   O  O7  1  0.179737  0.701399  0.961481  0  .  1
   O  O8  1  0.820263  0.298601  0.038519  0  .  1
   O  O9  1  0.439818  0.298601  0.820263  0  .  1
   O  O10  1  0.961481  0.701399  0.560182  0  .  1
 
