#\#CIF1.1
##########################################################################
#               Crystallographic Information Format file 
#               Produced by PyCifRW module
# 
#  This is a CIF file.  CIF has been adopted by the International
#  Union of Crystallography as the standard for data archiving and 
#  transmission.
#
#  For information on this file format, follow the CIF links at
#  http://www.iucr.org
##########################################################################

data_NaMn8O16
_symmetry_space_group_name_H-M          'P 1'
_cell_length_a                          5.92428911228
_cell_length_b                          11.8582873245
_cell_length_c                          8.37996152038
_cell_angle_alpha                       89.9989052835
_cell_angle_beta                        89.999999614
_cell_angle_gamma                       90.0000066999
_chemical_name_systematic               'Generated by pymatgen'
_symmetry_Int_Tables_number             1
_chemical_formula_structural            NaMn8O16
_chemical_formula_sum                   'Na2 Mn16 O32'
_cell_volume                            588.708407063
_cell_formula_units_Z                   2
loop_
  _symmetry_equiv_pos_site_id
  _symmetry_equiv_pos_as_xyz
   1  'x, y, z'
 
loop_
  _atom_site_type_symbol
  _atom_site_label
  _atom_site_symmetry_multiplicity
  _atom_site_fract_x
  _atom_site_fract_y
  _atom_site_fract_z
  _atom_site_attached_hydrogens
  _atom_site_B_iso_or_equiv
  _atom_site_occupancy
   Na  Na1  1  0.749998  0.249999  0.374257  0  .  1
   Na  Na2  1  0.250000  0.750000  0.625747  0  .  1
   Mn  Mn3  1  0.497290  0.250006  0.995089  0  .  1
   Mn  Mn4  1  0.502708  0.749993  0.004906  0  .  1
   Mn  Mn5  1  0.002710  0.250007  0.995089  0  .  1
   Mn  Mn6  1  0.997289  0.749994  0.004908  0  .  1
   Mn  Mn7  1  0.250000  0.623787  0.245175  0  .  1
   Mn  Mn8  1  0.250000  0.122616  0.245295  0  .  1
   Mn  Mn9  1  0.250002  0.377384  0.245297  0  .  1
   Mn  Mn10  1  0.250000  0.876220  0.245159  0  .  1
   Mn  Mn11  1  -0.000000  0.999997  0.500006  0  .  1
   Mn  Mn12  1  0.499998  0.500003  0.499999  0  .  1
   Mn  Mn13  1  -0.000001  0.500002  0.499997  0  .  1
   Mn  Mn14  1  0.500003  0.999996  0.500002  0  .  1
   Mn  Mn15  1  0.750001  0.123781  0.754838  0  .  1
   Mn  Mn16  1  0.750002  0.376216  0.754827  0  .  1
   Mn  Mn17  1  0.750000  0.877380  0.754707  0  .  1
   Mn  Mn18  1  0.749999  0.622618  0.754704  0  .  1
   O  O19  1  0.249999  0.642116  0.015346  0  .  1
   O  O20  1  0.250000  0.141041  0.010674  0  .  1
   O  O21  1  0.249999  0.358973  0.010674  0  .  1
   O  O22  1  0.250002  0.857869  0.015323  0  .  1
   O  O23  1  0.034326  0.749998  0.235103  0  .  1
   O  O24  1  0.038486  0.250003  0.226127  0  .  1
   O  O25  1  0.465676  0.749998  0.235102  0  .  1
   O  O26  1  0.461513  0.250003  0.226126  0  .  1
   O  O27  1  0.031441  0.498702  0.263991  0  .  1
   O  O28  1  0.468557  0.001306  0.263975  0  .  1
   O  O29  1  0.031445  0.001306  0.263979  0  .  1
   O  O30  1  0.468560  0.498702  0.263991  0  .  1
   O  O31  1  0.249999  0.894298  0.478089  0  .  1
   O  O32  1  0.249999  0.605703  0.478101  0  .  1
   O  O33  1  0.250000  0.390297  0.480078  0  .  1
   O  O34  1  0.249999  0.109697  0.480068  0  .  1
   O  O35  1  0.750004  0.105694  0.521908  0  .  1
   O  O36  1  0.749999  0.609707  0.519925  0  .  1
   O  O37  1  0.749999  0.394302  0.521901  0  .  1
   O  O38  1  0.750004  0.890297  0.519938  0  .  1
   O  O39  1  0.531440  0.501303  0.736011  0  .  1
   O  O40  1  0.968557  0.998690  0.736023  0  .  1
   O  O41  1  0.531446  0.998691  0.736024  0  .  1
   O  O42  1  0.968559  0.501303  0.736009  0  .  1
   O  O43  1  0.538484  0.749997  0.773872  0  .  1
   O  O44  1  0.534331  0.250004  0.764897  0  .  1
   O  O45  1  0.965671  0.250005  0.764896  0  .  1
   O  O46  1  0.961512  0.749997  0.773872  0  .  1
   O  O47  1  0.750000  0.142133  0.984668  0  .  1
   O  O48  1  0.749998  0.357881  0.984654  0  .  1
   O  O49  1  0.749997  0.858958  0.989327  0  .  1
   O  O50  1  0.749998  0.641025  0.989327  0  .  1
 
