#\#CIF1.1
##########################################################################
#               Crystallographic Information Format file 
#               Produced by PyCifRW module
# 
#  This is a CIF file.  CIF has been adopted by the International
#  Union of Crystallography as the standard for data archiving and 
#  transmission.
#
#  For information on this file format, follow the CIF links at
#  http://www.iucr.org
##########################################################################

data_NaMnO4
_symmetry_space_group_name_H-M          'P 1'
_cell_length_a                          5.4050443707
_cell_length_b                          5.4050443707
_cell_length_c                          7.04613122
_cell_angle_alpha                       90.0
_cell_angle_beta                        90.0
_cell_angle_gamma                       65.9859630558
_chemical_name_systematic               'Generated by pymatgen'
_symmetry_Int_Tables_number             1
_chemical_formula_structural            NaMnO4
_chemical_formula_sum                   'Na2 Mn2 O8'
_cell_volume                            188.032114172
_cell_formula_units_Z                   2
loop_
  _symmetry_equiv_pos_site_id
  _symmetry_equiv_pos_as_xyz
   1  'x, y, z'
 
loop_
  _atom_site_type_symbol
  _atom_site_label
  _atom_site_symmetry_multiplicity
  _atom_site_fract_x
  _atom_site_fract_y
  _atom_site_fract_z
  _atom_site_attached_hydrogens
  _atom_site_B_iso_or_equiv
  _atom_site_occupancy
   Na  Na1  1  0.000000  0.000000  0.000000  0  .  1
   Na  Na2  1  0.000000  0.000000  0.500000  0  .  1
   Mn  Mn3  1  0.638875  0.638875  0.750000  0  .  1
   Mn  Mn4  1  0.361125  0.361125  0.250000  0  .  1
   O  O5  1  0.238810  0.690556  0.250000  0  .  1
   O  O6  1  0.309444  0.761190  0.750000  0  .  1
   O  O7  1  0.740220  0.740220  0.562953  0  .  1
   O  O8  1  0.259780  0.259780  0.062953  0  .  1
   O  O9  1  0.259780  0.259780  0.437047  0  .  1
   O  O10  1  0.740220  0.740220  0.937047  0  .  1
   O  O11  1  0.690556  0.238810  0.250000  0  .  1
   O  O12  1  0.761190  0.309444  0.750000  0  .  1
 
