#\#CIF1.1
##########################################################################
#               Crystallographic Information Format file 
#               Produced by PyCifRW module
# 
#  This is a CIF file.  CIF has been adopted by the International
#  Union of Crystallography as the standard for data archiving and 
#  transmission.
#
#  For information on this file format, follow the CIF links at
#  http://www.iucr.org
##########################################################################

data_NaMnO2
_symmetry_space_group_name_H-M          'P 1'
_cell_length_a                          5.67960064561
_cell_length_b                          5.67959980506
_cell_length_c                          5.67960069725
_cell_angle_alpha                       31.7755294752
_cell_angle_beta                        31.7755443189
_cell_angle_gamma                       31.7755447424
_chemical_name_systematic               'Generated by pymatgen'
_symmetry_Int_Tables_number             1
_chemical_formula_structural            NaMnO2
_chemical_formula_sum                   'Na1 Mn1 O2'
_cell_volume                            45.1237127603
_cell_formula_units_Z                   1
loop_
  _symmetry_equiv_pos_site_id
  _symmetry_equiv_pos_as_xyz
   1  'x, y, z'
 
loop_
  _atom_site_type_symbol
  _atom_site_label
  _atom_site_symmetry_multiplicity
  _atom_site_fract_x
  _atom_site_fract_y
  _atom_site_fract_z
  _atom_site_attached_hydrogens
  _atom_site_B_iso_or_equiv
  _atom_site_occupancy
   Na  Na1  1  0.500000  0.500000  0.500000  0  .  1
   Mn  Mn2  1  0.000000  0.000000  0.000000  0  .  1
   O  O3  1  0.267212  0.267212  0.267212  0  .  1
   O  O4  1  0.732788  0.732788  0.732788  0  .  1
 
