#\#CIF1.1
##########################################################################
#               Crystallographic Information Format file 
#               Produced by PyCifRW module
# 
#  This is a CIF file.  CIF has been adopted by the International
#  Union of Crystallography as the standard for data archiving and 
#  transmission.
#
#  For information on this file format, follow the CIF links at
#  http://www.iucr.org
##########################################################################

data_NaNi2O3
_symmetry_space_group_name_H-M          'P 1'
_cell_length_a                          2.99675573
_cell_length_b                          2.99642750978
_cell_length_c                          7.67722294346
_cell_angle_alpha                       89.9971199646
_cell_angle_beta                        90.0
_cell_angle_gamma                       120.003623417
_chemical_name_systematic               'Generated by pymatgen'
_symmetry_Int_Tables_number             1
_chemical_formula_structural            NaNi2O3
_chemical_formula_sum                   'Na1 Ni2 O3'
_cell_volume                            59.6999607239
_cell_formula_units_Z                   1
loop_
  _symmetry_equiv_pos_site_id
  _symmetry_equiv_pos_as_xyz
   1  'x, y, z'
 
loop_
  _atom_site_type_symbol
  _atom_site_label
  _atom_site_symmetry_multiplicity
  _atom_site_fract_x
  _atom_site_fract_y
  _atom_site_fract_z
  _atom_site_attached_hydrogens
  _atom_site_B_iso_or_equiv
  _atom_site_occupancy
   Na  Na1  1  0.999987  0.000000  0.500000  0  .  1
   Ni  Ni2  1  0.333339  0.666681  0.161433  0  .  1
   Ni  Ni3  1  0.666658  0.333319  0.838567  0  .  1
   O  O4  1  0.333293  0.666599  0.708196  0  .  1
   O  O5  1  0.000009  0.000000  0.000000  0  .  1
   O  O6  1  0.666694  0.333401  0.291804  0  .  1
 
