#\#CIF1.1
##########################################################################
#               Crystallographic Information Format file 
#               Produced by PyCifRW module
# 
#  This is a CIF file.  CIF has been adopted by the International
#  Union of Crystallography as the standard for data archiving and 
#  transmission.
#
#  For information on this file format, follow the CIF links at
#  http://www.iucr.org
##########################################################################

data_NaNi3O4
_symmetry_space_group_name_H-M          'P 1'
_cell_length_a                          5.21747665221
_cell_length_b                          10.0076459215
_cell_length_c                          3.00809376114
_cell_angle_alpha                       97.6463459829
_cell_angle_beta                        90.8172728349
_cell_angle_gamma                       86.1654886724
_chemical_name_systematic               'Generated by pymatgen'
_symmetry_Int_Tables_number             1
_chemical_formula_structural            NaNi3O4
_chemical_formula_sum                   'Na2 Ni6 O8'
_cell_volume                            155.319216632
_cell_formula_units_Z                   2
loop_
  _symmetry_equiv_pos_site_id
  _symmetry_equiv_pos_as_xyz
   1  'x, y, z'
 
loop_
  _atom_site_type_symbol
  _atom_site_label
  _atom_site_symmetry_multiplicity
  _atom_site_fract_x
  _atom_site_fract_y
  _atom_site_fract_z
  _atom_site_attached_hydrogens
  _atom_site_B_iso_or_equiv
  _atom_site_occupancy
   Na  Na1  1  0.378334  0.750073  0.859542  0  .  1
   Na  Na2  1  0.621666  0.249927  0.140458  0  .  1
   Ni  Ni3  1  0.000000  0.000000  0.000000  0  .  1
   Ni  Ni4  1  0.124315  0.250627  0.629604  0  .  1
   Ni  Ni5  1  0.250042  0.505049  0.247677  0  .  1
   Ni  Ni6  1  0.500000  0.000000  0.500000  0  .  1
   Ni  Ni7  1  0.749958  0.494951  0.752323  0  .  1
   Ni  Ni8  1  0.875685  0.749373  0.370396  0  .  1
   O  O9  1  0.038987  0.620776  0.811209  0  .  1
   O  O10  1  0.164046  0.890630  0.412289  0  .  1
   O  O11  1  0.288296  0.114364  0.057788  0  .  1
   O  O12  1  0.412948  0.392327  0.696307  0  .  1
   O  O13  1  0.587052  0.607673  0.303693  0  .  1
   O  O14  1  0.835954  0.109370  0.587711  0  .  1
   O  O15  1  0.711704  0.885636  0.942212  0  .  1
   O  O16  1  0.961013  0.379224  0.188791  0  .  1
 
