#\#CIF1.1
##########################################################################
#               Crystallographic Information Format file 
#               Produced by PyCifRW module
# 
#  This is a CIF file.  CIF has been adopted by the International
#  Union of Crystallography as the standard for data archiving and 
#  transmission.
#
#  For information on this file format, follow the CIF links at
#  http://www.iucr.org
##########################################################################

data_NaTi2O3
_symmetry_space_group_name_H-M          'P 1'
_cell_length_a                          5.15558099478
_cell_length_b                          5.15592610088
_cell_length_c                          10.47920928
_cell_angle_alpha                       90.0002079069
_cell_angle_beta                        89.999374893
_cell_angle_gamma                       60.0047425719
_chemical_name_systematic               'Generated by pymatgen'
_symmetry_Int_Tables_number             1
_chemical_formula_structural            NaTi2O3
_chemical_formula_sum                   'Na4 Ti8 O12'
_cell_volume                            241.248263582
_cell_formula_units_Z                   4
loop_
  _symmetry_equiv_pos_site_id
  _symmetry_equiv_pos_as_xyz
   1  'x, y, z'
 
loop_
  _atom_site_type_symbol
  _atom_site_label
  _atom_site_symmetry_multiplicity
  _atom_site_fract_x
  _atom_site_fract_y
  _atom_site_fract_z
  _atom_site_attached_hydrogens
  _atom_site_B_iso_or_equiv
  _atom_site_occupancy
   Na  Na1  1  0.333345  0.333308  0.999895  0  .  1
   Na  Na2  1  0.666638  0.666683  0.999902  0  .  1
   Na  Na3  1  0.666682  0.666687  0.500086  0  .  1
   Na  Na4  1  0.333347  0.333306  0.500084  0  .  1
   Ti  Ti5  1  0.999980  0.666721  0.250034  0  .  1
   Ti  Ti6  1  0.332979  0.667069  0.749952  0  .  1
   Ti  Ti7  1  0.000017  0.332978  0.749955  0  .  1
   Ti  Ti8  1  0.999991  0.999985  0.000132  0  .  1
   Ti  Ti9  1  0.000025  0.999982  0.499965  0  .  1
   Ti  Ti10  1  0.333237  0.000002  0.250030  0  .  1
   Ti  Ti11  1  0.666707  0.333277  0.250035  0  .  1
   Ti  Ti12  1  0.667064  0.000027  0.749958  0  .  1
   O  O13  1  0.000022  0.685035  0.627264  0  .  1
   O  O14  1  0.999988  0.684965  0.872561  0  .  1
   O  O15  1  0.999992  0.315061  0.127394  0  .  1
   O  O16  1  0.999986  0.314893  0.372770  0  .  1
   O  O17  1  0.315061  0.684909  0.127401  0  .  1
   O  O18  1  0.314871  0.685125  0.372792  0  .  1
   O  O19  1  0.685081  0.314958  0.627252  0  .  1
   O  O20  1  0.684958  0.315074  0.872548  0  .  1
   O  O21  1  0.314983  0.000019  0.627265  0  .  1
   O  O22  1  0.315016  0.000030  0.872569  0  .  1
   O  O23  1  0.684935  0.999995  0.127382  0  .  1
   O  O24  1  0.685097  0.000010  0.372773  0  .  1
 
