#\#CIF1.1
##########################################################################
#               Crystallographic Information Format file 
#               Produced by PyCifRW module
# 
#  This is a CIF file.  CIF has been adopted by the International
#  Union of Crystallography as the standard for data archiving and 
#  transmission.
#
#  For information on this file format, follow the CIF links at
#  http://www.iucr.org
##########################################################################

data_NaTi8O13
_symmetry_space_group_name_H-M          'P 1'
_cell_length_a                          6.49926443813
_cell_length_b                          6.4992644441
_cell_length_c                          6.4992644374
_cell_angle_alpha                       73.4173484849
_cell_angle_beta                        73.4173485297
_cell_angle_gamma                       73.4173484936
_chemical_name_systematic               'Generated by pymatgen'
_symmetry_Int_Tables_number             1
_chemical_formula_structural            NaTi8O13
_chemical_formula_sum                   'Na1 Ti8 O13'
_cell_volume                            245.876307611
_cell_formula_units_Z                   1
loop_
  _symmetry_equiv_pos_site_id
  _symmetry_equiv_pos_as_xyz
   1  'x, y, z'
 
loop_
  _atom_site_type_symbol
  _atom_site_label
  _atom_site_symmetry_multiplicity
  _atom_site_fract_x
  _atom_site_fract_y
  _atom_site_fract_z
  _atom_site_attached_hydrogens
  _atom_site_B_iso_or_equiv
  _atom_site_occupancy
   O  O1  1  0.205995  0.951731  0.356699  0  .  1
   O  O2  1  0.951731  0.356699  0.205995  0  .  1
   O  O3  1  0.356699  0.205995  0.951731  0  .  1
   O  O4  1  0.794005  0.048269  0.643301  0  .  1
   O  O5  1  0.048269  0.643301  0.794005  0  .  1
   O  O6  1  0.643301  0.794005  0.048269  0  .  1
   O  O7  1  0.266642  0.578040  0.174090  0  .  1
   O  O8  1  0.578040  0.174090  0.266642  0  .  1
   O  O9  1  0.174090  0.266642  0.578040  0  .  1
   O  O10  1  0.000000  0.000000  0.000000  0  .  1
   O  O11  1  0.825910  0.733358  0.421960  0  .  1
   O  O12  1  0.421960  0.825910  0.733358  0  .  1
   O  O13  1  0.733358  0.421960  0.825910  0  .  1
   Na  Na14  1  0.500000  0.500000  0.500000  0  .  1
   Ti  Ti15  1  0.729058  0.729058  0.729058  0  .  1
   Ti  Ti16  1  0.124513  0.949838  0.683259  0  .  1
   Ti  Ti17  1  0.949838  0.683259  0.124513  0  .  1
   Ti  Ti18  1  0.683259  0.124513  0.949838  0  .  1
   Ti  Ti19  1  0.875487  0.050162  0.316741  0  .  1
   Ti  Ti20  1  0.050162  0.316741  0.875487  0  .  1
   Ti  Ti21  1  0.316741  0.875487  0.050162  0  .  1
   Ti  Ti22  1  0.270942  0.270942  0.270942  0  .  1
 
