#\#CIF1.1
##########################################################################
#               Crystallographic Information Format file 
#               Produced by PyCifRW module
# 
#  This is a CIF file.  CIF has been adopted by the International
#  Union of Crystallography as the standard for data archiving and 
#  transmission.
#
#  For information on this file format, follow the CIF links at
#  http://www.iucr.org
##########################################################################

data_NaTi4O8
_symmetry_space_group_name_H-M          'P 1'
_cell_length_a                          7.13030020544
_cell_length_b                          10.3561404289
_cell_length_c                          6.06816738844
_cell_angle_alpha                       91.2127672722
_cell_angle_beta                        85.4102612542
_cell_angle_gamma                       78.9114516594
_chemical_name_systematic               'Generated by pymatgen'
_symmetry_Int_Tables_number             1
_chemical_formula_structural            NaTi4O8
_chemical_formula_sum                   'Na3 Ti12 O24'
_cell_volume                            438.006423659
_cell_formula_units_Z                   3
loop_
  _symmetry_equiv_pos_site_id
  _symmetry_equiv_pos_as_xyz
   1  'x, y, z'
 
loop_
  _atom_site_type_symbol
  _atom_site_label
  _atom_site_symmetry_multiplicity
  _atom_site_fract_x
  _atom_site_fract_y
  _atom_site_fract_z
  _atom_site_attached_hydrogens
  _atom_site_B_iso_or_equiv
  _atom_site_occupancy
   Na  Na1  1  0.426616  0.935774  0.980036  0  .  1
   Na  Na2  1  0.573370  0.305554  0.259282  0  .  1
   Na  Na3  1  0.571322  0.575535  0.531076  0  .  1
   Ti  Ti4  1  0.980458  0.007505  0.999622  0  .  1
   Ti  Ti5  1  0.001694  0.752305  0.746267  0  .  1
   Ti  Ti6  1  0.021163  0.242154  0.257651  0  .  1
   Ti  Ti7  1  0.013254  0.493770  0.499858  0  .  1
   Ti  Ti8  1  0.307095  0.210710  0.735472  0  .  1
   Ti  Ti9  1  0.297863  0.461775  0.975641  0  .  1
   Ti  Ti10  1  0.297262  0.704499  0.220578  0  .  1
   Ti  Ti11  1  0.300126  0.951569  0.477766  0  .  1
   Ti  Ti12  1  0.693852  0.039298  0.517171  0  .  1
   Ti  Ti13  1  0.704412  0.291406  0.775045  0  .  1
   Ti  Ti14  1  0.704067  0.794913  0.274491  0  .  1
   Ti  Ti15  1  0.701420  0.549251  0.017780  0  .  1
   O  O16  1  0.144769  0.143902  0.978564  0  .  1
   O  O17  1  0.138994  0.651548  0.478467  0  .  1
   O  O18  1  0.142897  0.400997  0.227113  0  .  1
   O  O19  1  0.139698  0.901606  0.733248  0  .  1
   O  O20  1  0.187467  0.397583  0.708172  0  .  1
   O  O21  1  0.185276  0.148877  0.460647  0  .  1
   O  O22  1  0.183530  0.648687  0.960642  0  .  1
   O  O23  1  0.182532  0.898383  0.219002  0  .  1
   O  O24  1  0.452033  0.025834  0.686343  0  .  1
   O  O25  1  0.449307  0.269520  0.956706  0  .  1
   O  O26  1  0.452960  0.776446  0.452393  0  .  1
   O  O27  1  0.454081  0.522764  0.211845  0  .  1
   O  O28  1  0.547789  0.225650  0.561867  0  .  1
   O  O29  1  0.544358  0.471499  0.811849  0  .  1
   O  O30  1  0.545126  0.725969  0.043136  0  .  1
   O  O31  1  0.549175  0.977880  0.290105  0  .  1
   O  O32  1  0.812276  0.101134  0.790539  0  .  1
   O  O33  1  0.816476  0.353162  0.029764  0  .  1
   O  O34  1  0.815101  0.602985  0.280141  0  .  1
   O  O35  1  0.813819  0.852784  0.537178  0  .  1
   O  O36  1  0.853528  0.353274  0.517777  0  .  1
   O  O37  1  0.852384  0.105917  0.271498  0  .  1
   O  O38  1  0.858107  0.597946  0.763646  0  .  1
   O  O39  1  0.859941  0.847758  0.019443  0  .  1
 
