#\#CIF1.1
##########################################################################
#               Crystallographic Information Format file 
#               Produced by PyCifRW module
# 
#  This is a CIF file.  CIF has been adopted by the International
#  Union of Crystallography as the standard for data archiving and 
#  transmission.
#
#  For information on this file format, follow the CIF links at
#  http://www.iucr.org
##########################################################################

data_NaV2O4
_symmetry_space_group_name_H-M          'P 1'
_cell_length_a                          6.21351186333
_cell_length_b                          6.21351186333
_cell_length_c                          6.21351186333
_cell_angle_alpha                       121.699949324
_cell_angle_beta                        121.699949324
_cell_angle_gamma                       87.0799861561
_chemical_name_systematic               'Generated by pymatgen'
_symmetry_Int_Tables_number             1
_chemical_formula_structural            NaV2O4
_chemical_formula_sum                   'Na2 V4 O8'
_cell_volume                            165.035957557
_cell_formula_units_Z                   2
loop_
  _symmetry_equiv_pos_site_id
  _symmetry_equiv_pos_as_xyz
   1  'x, y, z'
 
loop_
  _atom_site_type_symbol
  _atom_site_label
  _atom_site_symmetry_multiplicity
  _atom_site_fract_x
  _atom_site_fract_y
  _atom_site_fract_z
  _atom_site_attached_hydrogens
  _atom_site_B_iso_or_equiv
  _atom_site_occupancy
   Na  Na1  1  0.875000  0.125000  0.750000  0  .  1
   Na  Na2  1  0.125000  0.875000  0.250000  0  .  1
   V  V3  1  0.500000  0.000000  0.000000  0  .  1
   V  V4  1  0.500000  0.500000  0.000000  0  .  1
   V  V5  1  0.500000  0.500000  0.500000  0  .  1
   V  V6  1  0.000000  0.500000  0.500000  0  .  1
   O  O7  1  0.728249  0.264245  0.035997  0  .  1
   O  O8  1  0.307748  0.271751  0.035997  0  .  1
   O  O9  1  0.735755  0.271751  0.464003  0  .  1
   O  O10  1  0.728249  0.692252  0.464003  0  .  1
   O  O11  1  0.271751  0.307748  0.535997  0  .  1
   O  O12  1  0.264245  0.728249  0.535997  0  .  1
   O  O13  1  0.692252  0.728249  0.964003  0  .  1
   O  O14  1  0.271751  0.735755  0.964003  0  .  1
 
