#\#CIF1.1
##########################################################################
#               Crystallographic Information Format file 
#               Produced by PyCifRW module
# 
#  This is a CIF file.  CIF has been adopted by the International
#  Union of Crystallography as the standard for data archiving and 
#  transmission.
#
#  For information on this file format, follow the CIF links at
#  http://www.iucr.org
##########################################################################

data_NaV24O58
_symmetry_space_group_name_H-M          'P 1'
_cell_length_a                          14.396022052
_cell_length_b                          7.348230885
_cell_length_c                          10.9717991081
_cell_angle_alpha                       70.4418751626
_cell_angle_beta                        97.2442597903
_cell_angle_gamma                       82.6428734336
_chemical_name_systematic               'Generated by pymatgen'
_symmetry_Int_Tables_number             1
_chemical_formula_structural            NaV24O58
_chemical_formula_sum                   'Na1 V24 O58'
_cell_volume                            1066.80786633
_cell_formula_units_Z                   1
loop_
  _symmetry_equiv_pos_site_id
  _symmetry_equiv_pos_as_xyz
   1  'x, y, z'
 
loop_
  _atom_site_type_symbol
  _atom_site_label
  _atom_site_symmetry_multiplicity
  _atom_site_fract_x
  _atom_site_fract_y
  _atom_site_fract_z
  _atom_site_attached_hydrogens
  _atom_site_B_iso_or_equiv
  _atom_site_occupancy
   Na  Na1  1  0.494012  0.404459  0.442284  0  .  1
   V  V2  1  0.174332  0.272818  0.867363  0  .  1
   V  V3  1  0.174269  0.771469  0.869812  0  .  1
   V  V4  1  0.121560  0.422703  0.092683  0  .  1
   V  V5  1  0.121525  0.923720  0.092889  0  .  1
   V  V6  1  0.215377  0.923955  0.544543  0  .  1
   V  V7  1  0.216579  0.423153  0.545364  0  .  1
   V  V8  1  0.289435  0.253401  0.344788  0  .  1
   V  V9  1  0.289616  0.757085  0.344810  0  .  1
   V  V10  1  0.395709  0.255758  0.791073  0  .  1
   V  V11  1  0.392917  0.754172  0.794378  0  .  1
   V  V12  1  0.356495  0.396787  0.029061  0  .  1
   V  V13  1  0.356919  0.896086  0.028591  0  .  1
   V  V14  1  0.642962  0.103220  0.970438  0  .  1
   V  V15  1  0.645371  0.605609  0.966793  0  .  1
   V  V16  1  0.603593  0.746747  0.202048  0  .  1
   V  V17  1  0.604268  0.245432  0.207235  0  .  1
   V  V18  1  0.713331  0.241645  0.659364  0  .  1
   V  V19  1  0.706639  0.748163  0.651216  0  .  1
   V  V20  1  0.783626  0.077083  0.454389  0  .  1
   V  V21  1  0.784121  0.576180  0.455345  0  .  1
   V  V22  1  0.879678  0.076375  0.907945  0  .  1
   V  V23  1  0.879999  0.575485  0.908544  0  .  1
   V  V24  1  0.826513  0.227132  0.132954  0  .  1
   V  V25  1  0.826490  0.727137  0.132075  0  .  1
   O  O26  1  0.069109  0.341914  0.781626  0  .  1
   O  O27  1  0.069786  0.841892  0.781586  0  .  1
   O  O28  1  0.000072  0.000036  0.000035  0  .  1
   O  O29  1  -0.000047  0.499740  0.000409  0  .  1
   O  O30  1  0.103249  0.465173  0.518034  0  .  1
   O  O31  1  0.102046  0.964611  0.519834  0  .  1
   O  O32  1  0.109811  0.349596  0.246472  0  .  1
   O  O33  1  0.109759  0.848902  0.246609  0  .  1
   O  O34  1  0.200144  0.493887  0.912329  0  .  1
   O  O35  1  0.200909  0.993275  0.912882  0  .  1
   O  O36  1  0.140928  0.190664  0.048337  0  .  1
   O  O37  1  0.140885  0.690354  0.048703  0  .  1
   O  O38  1  0.247268  0.323274  0.729938  0  .  1
   O  O39  1  0.249835  0.821798  0.731498  0  .  1
   O  O40  1  0.247274  0.176228  0.522311  0  .  1
   O  O41  1  0.247259  0.677887  0.522287  0  .  1
   O  O42  1  0.334452  0.174085  0.984472  0  .  1
   O  O43  1  0.331725  0.671807  0.990979  0  .  1
   O  O44  1  0.254891  0.001220  0.370141  0  .  1
   O  O45  1  0.259340  0.499688  0.371072  0  .  1
   O  O46  1  0.273428  0.346369  0.166559  0  .  1
   O  O47  1  0.273436  0.850144  0.166880  0  .  1
   O  O48  1  0.389322  0.487636  0.847956  0  .  1
   O  O49  1  0.389332  0.969472  0.848587  0  .  1
   O  O50  1  0.405478  0.331176  0.635143  0  .  1
   O  O51  1  0.407297  0.826402  0.643139  0  .  1
   O  O52  1  0.404051  0.200746  0.385299  0  .  1
   O  O53  1  0.404315  0.711862  0.385136  0  .  1
   O  O54  1  0.532655  0.178183  0.877501  0  .  1
   O  O55  1  0.534758  0.677262  0.877930  0  .  1
   O  O56  1  0.469024  0.819644  0.123810  0  .  1
   O  O57  1  0.467191  0.323213  0.121840  0  .  1
   O  O58  1  0.598649  0.287630  0.625673  0  .  1
   O  O59  1  0.593024  0.795876  0.611864  0  .  1
   O  O60  1  0.592726  0.183521  0.361732  0  .  1
   O  O61  1  0.592564  0.663031  0.356133  0  .  1
   O  O62  1  0.611876  0.012035  0.151970  0  .  1
   O  O63  1  0.611732  0.530318  0.149620  0  .  1
   O  O64  1  0.729453  0.149233  0.836491  0  .  1
   O  O65  1  0.723434  0.652275  0.834796  0  .  1
   O  O66  1  0.742869  0.997976  0.629943  0  .  1
   O  O67  1  0.742859  0.500651  0.630071  0  .  1
   O  O68  1  0.665250  0.335626  0.012841  0  .  1
   O  O69  1  0.666372  0.820337  0.011123  0  .  1
   O  O70  1  0.752408  0.322935  0.478822  0  .  1
   O  O71  1  0.750427  0.823766  0.476582  0  .  1
   O  O72  1  0.750738  0.677790  0.269114  0  .  1
   O  O73  1  0.752606  0.176641  0.269774  0  .  1
   O  O74  1  0.858943  0.808802  0.952163  0  .  1
   O  O75  1  0.858760  0.309705  0.952090  0  .  1
   O  O76  1  0.798990  0.006196  0.088177  0  .  1
   O  O77  1  0.800343  0.505851  0.088359  0  .  1
   O  O78  1  0.889830  0.151018  0.753074  0  .  1
   O  O79  1  0.890570  0.650118  0.754616  0  .  1
   O  O80  1  0.896848  0.034331  0.481559  0  .  1
   O  O81  1  0.897294  0.535508  0.481664  0  .  1
   O  O82  1  0.931476  0.157951  0.219319  0  .  1
   O  O83  1  0.931042  0.656961  0.219409  0  .  1
 
