#\#CIF1.1
##########################################################################
#               Crystallographic Information Format file 
#               Produced by PyCifRW module
# 
#  This is a CIF file.  CIF has been adopted by the International
#  Union of Crystallography as the standard for data archiving and 
#  transmission.
#
#  For information on this file format, follow the CIF links at
#  http://www.iucr.org
##########################################################################

data_NaV3O8
_symmetry_space_group_name_H-M          'P 1'
_cell_length_a                          5.12260376099
_cell_length_b                          7.44279813773
_cell_length_c                          8.54792349
_cell_angle_alpha                       90.0
_cell_angle_beta                        90.0
_cell_angle_gamma                       101.993346601
_chemical_name_systematic               'Generated by pymatgen'
_symmetry_Int_Tables_number             1
_chemical_formula_structural            NaV3O8
_chemical_formula_sum                   'Na2 V6 O16'
_cell_volume                            318.788569667
_cell_formula_units_Z                   2
loop_
  _symmetry_equiv_pos_site_id
  _symmetry_equiv_pos_as_xyz
   1  'x, y, z'
 
loop_
  _atom_site_type_symbol
  _atom_site_label
  _atom_site_symmetry_multiplicity
  _atom_site_fract_x
  _atom_site_fract_y
  _atom_site_fract_z
  _atom_site_attached_hydrogens
  _atom_site_B_iso_or_equiv
  _atom_site_occupancy
   Na  Na1  1  0.470773  0.949583  0.750000  0  .  1
   Na  Na2  1  0.529227  0.050417  0.250000  0  .  1
   V  V3  1  0.035222  0.302008  0.554974  0  .  1
   V  V4  1  0.035222  0.302008  0.945026  0  .  1
   V  V5  1  0.432829  0.574384  0.250000  0  .  1
   V  V6  1  0.567171  0.425616  0.750000  0  .  1
   V  V7  1  0.964778  0.697992  0.054974  0  .  1
   V  V8  1  0.964778  0.697992  0.445026  0  .  1
   O  O9  1  0.111436  0.853475  0.568649  0  .  1
   O  O10  1  0.111436  0.853475  0.931351  0  .  1
   O  O11  1  0.120442  0.783127  0.250000  0  .  1
   O  O12  1  0.177771  0.507510  0.411936  0  .  1
   O  O13  1  0.177771  0.507510  0.088064  0  .  1
   O  O14  1  0.415554  0.598236  0.750000  0  .  1
   O  O15  1  0.357902  0.260469  0.601797  0  .  1
   O  O16  1  0.357902  0.260469  0.898203  0  .  1
   O  O17  1  0.642098  0.739531  0.101797  0  .  1
   O  O18  1  0.642098  0.739531  0.398203  0  .  1
   O  O19  1  0.584446  0.401764  0.250000  0  .  1
   O  O20  1  0.822229  0.492490  0.588064  0  .  1
   O  O21  1  0.822229  0.492490  0.911936  0  .  1
   O  O22  1  0.879558  0.216873  0.750000  0  .  1
   O  O23  1  0.888564  0.146525  0.068649  0  .  1
   O  O24  1  0.888564  0.146525  0.431351  0  .  1
 
