#\#CIF1.1
##########################################################################
#               Crystallographic Information Format file 
#               Produced by PyCifRW module
# 
#  This is a CIF file.  CIF has been adopted by the International
#  Union of Crystallography as the standard for data archiving and 
#  transmission.
#
#  For information on this file format, follow the CIF links at
#  http://www.iucr.org
##########################################################################

data_NaV5O10
_symmetry_space_group_name_H-M          'P 1'
_cell_length_a                          6.0426445241
_cell_length_b                          7.32382866582
_cell_length_c                          5.61303122307
_cell_angle_alpha                       65.3680899262
_cell_angle_beta                        58.5448330262
_cell_angle_gamma                       79.5158312945
_chemical_name_systematic               'Generated by pymatgen'
_symmetry_Int_Tables_number             1
_chemical_formula_structural            NaV5O10
_chemical_formula_sum                   'Na1 V5 O10'
_cell_volume                            192.418154365
_cell_formula_units_Z                   1
loop_
  _symmetry_equiv_pos_site_id
  _symmetry_equiv_pos_as_xyz
   1  'x, y, z'
 
loop_
  _atom_site_type_symbol
  _atom_site_label
  _atom_site_symmetry_multiplicity
  _atom_site_fract_x
  _atom_site_fract_y
  _atom_site_fract_z
  _atom_site_attached_hydrogens
  _atom_site_B_iso_or_equiv
  _atom_site_occupancy
   Na  Na1  1  0.981871  0.268769  0.306679  0  .  1
   V  V2  1  0.004740  0.005883  0.970294  0  .  1
   V  V3  1  0.486352  0.400941  0.311601  0  .  1
   V  V4  1  0.513607  0.161344  0.969335  0  .  1
   V  V5  1  0.002790  0.771768  0.642298  0  .  1
   V  V6  1  0.502468  0.629622  0.642299  0  .  1
   O  O7  1  0.212596  0.011258  0.189127  0  .  1
   O  O8  1  0.361079  0.421008  0.042464  0  .  1
   O  O9  1  0.686159  0.166759  0.161811  0  .  1
   O  O10  1  0.795041  0.987226  0.808575  0  .  1
   O  O11  1  0.196095  0.214090  0.666629  0  .  1
   O  O12  1  0.318961  0.625724  0.457380  0  .  1
   O  O13  1  0.630317  0.371990  0.577184  0  .  1
   O  O14  1  0.802319  0.780000  0.414215  0  .  1
   O  O15  1  0.213139  0.806696  0.790675  0  .  1
   O  O16  1  0.792465  0.576926  0.949434  0  .  1
 
