#\#CIF1.1
##########################################################################
#               Crystallographic Information Format file 
#               Produced by PyCifRW module
# 
#  This is a CIF file.  CIF has been adopted by the International
#  Union of Crystallography as the standard for data archiving and 
#  transmission.
#
#  For information on this file format, follow the CIF links at
#  http://www.iucr.org
##########################################################################

data_NaV5O8
_symmetry_space_group_name_H-M          'P 1'
_cell_length_a                          3.00320092084
_cell_length_b                          5.53027632338
_cell_length_c                          10.6391198413
_cell_angle_alpha                       77.2904552178
_cell_angle_beta                        90.9755484503
_cell_angle_gamma                       106.2009289
_chemical_name_systematic               'Generated by pymatgen'
_symmetry_Int_Tables_number             1
_chemical_formula_structural            NaV5O8
_chemical_formula_sum                   'Na1 V5 O8'
_cell_volume                            165.339963537
_cell_formula_units_Z                   1
loop_
  _symmetry_equiv_pos_site_id
  _symmetry_equiv_pos_as_xyz
   1  'x, y, z'
 
loop_
  _atom_site_type_symbol
  _atom_site_label
  _atom_site_symmetry_multiplicity
  _atom_site_fract_x
  _atom_site_fract_y
  _atom_site_fract_z
  _atom_site_attached_hydrogens
  _atom_site_B_iso_or_equiv
  _atom_site_occupancy
   Na  Na1  1  0.490514  0.996682  0.750354  0  .  1
   V  V2  1  0.718969  0.470749  0.877299  0  .  1
   V  V3  1  0.732976  0.467560  0.382590  0  .  1
   V  V4  1  0.494119  0.996901  0.249804  0  .  1
   V  V5  1  0.269926  0.524455  0.622842  0  .  1
   V  V6  1  0.256019  0.525125  0.116508  0  .  1
   O  O7  1  0.841745  0.707173  0.686587  0  .  1
   O  O8  1  0.672972  0.320027  0.566540  0  .  1
   O  O9  1  0.861577  0.739172  0.199766  0  .  1
   O  O10  1  0.641092  0.301163  0.080327  0  .  1
   O  O11  1  0.324179  0.676444  0.933963  0  .  1
   O  O12  1  0.347573  0.690479  0.422069  0  .  1
   O  O13  1  0.132447  0.292898  0.805193  0  .  1
   O  O14  1  0.128008  0.254454  0.301603  0  .  1
 
