#\#CIF1.1
##########################################################################
#               Crystallographic Information Format file 
#               Produced by PyCifRW module
# 
#  This is a CIF file.  CIF has been adopted by the International
#  Union of Crystallography as the standard for data archiving and 
#  transmission.
#
#  For information on this file format, follow the CIF links at
#  http://www.iucr.org
##########################################################################

data_NaV6O13
_symmetry_space_group_name_H-M          'P 1'
_cell_length_a                          3.75502829592
_cell_length_b                          11.5201693219
_cell_length_c                          12.1099813854
_cell_angle_alpha                       68.6693677324
_cell_angle_beta                        90.0992940647
_cell_angle_gamma                       80.6150285367
_chemical_name_systematic               'Generated by pymatgen'
_symmetry_Int_Tables_number             1
_chemical_formula_structural            NaV6O13
_chemical_formula_sum                   'Na2 V12 O26'
_cell_volume                            480.379382329
_cell_formula_units_Z                   2
loop_
  _symmetry_equiv_pos_site_id
  _symmetry_equiv_pos_as_xyz
   1  'x, y, z'
 
loop_
  _atom_site_type_symbol
  _atom_site_label
  _atom_site_symmetry_multiplicity
  _atom_site_fract_x
  _atom_site_fract_y
  _atom_site_fract_z
  _atom_site_attached_hydrogens
  _atom_site_B_iso_or_equiv
  _atom_site_occupancy
   Na  Na1  1  0.172245  0.653177  0.717844  0  .  1
   Na  Na2  1  0.823937  0.348177  0.280698  0  .  1
   V  V3  1  0.045763  0.897389  0.959014  0  .  1
   V  V4  1  0.564208  0.873424  0.773132  0  .  1
   V  V5  1  0.573024  0.858099  0.483477  0  .  1
   V  V6  1  0.074451  0.856914  0.284372  0  .  1
   V  V7  1  0.771597  0.452970  0.920384  0  .  1
   V  V8  1  0.752572  0.489594  0.604104  0  .  1
   V  V9  1  0.224384  0.510976  0.388281  0  .  1
   V  V10  1  0.226734  0.549649  0.073116  0  .  1
   V  V11  1  0.930313  0.142140  0.714911  0  .  1
   V  V12  1  0.430104  0.141738  0.516072  0  .  1
   V  V13  1  0.438654  0.126374  0.228032  0  .  1
   V  V14  1  0.950952  0.102769  0.041935  0  .  1
   O  O15  1  0.554248  0.888275  0.933810  0  .  1
   O  O16  1  0.040442  0.920400  0.781756  0  .  1
   O  O17  1  0.544289  0.914747  0.600975  0  .  1
   O  O18  1  0.065662  0.873908  0.444279  0  .  1
   O  O19  1  0.641339  0.716855  0.810535  0  .  1
   O  O20  1  0.553834  0.897862  0.305122  0  .  1
   O  O21  1  0.044293  0.915623  0.108770  0  .  1
   O  O22  1  0.652937  0.698252  0.554439  0  .  1
   O  O23  1  0.251242  0.494514  0.932058  0  .  1
   O  O24  1  0.152707  0.695618  0.325882  0  .  1
   O  O25  1  0.748165  0.497826  0.764295  0  .  1
   O  O26  1  0.145887  0.707947  0.025654  0  .  1
   O  O27  1  0.245670  0.504240  0.571784  0  .  1
   O  O28  1  0.751874  0.496852  0.429569  0  .  1
   O  O29  1  0.851974  0.295399  0.973357  0  .  1
   O  O30  1  0.253910  0.502161  0.243929  0  .  1
   O  O31  1  0.848059  0.302743  0.674095  0  .  1
   O  O32  1  0.751222  0.497896  0.065168  0  .  1
   O  O33  1  0.347773  0.301860  0.445447  0  .  1
   O  O34  1  0.959720  0.082033  0.891849  0  .  1
   O  O35  1  0.450950  0.100740  0.694026  0  .  1
   O  O36  1  0.358839  0.282476  0.191221  0  .  1
   O  O37  1  0.938647  0.124990  0.555024  0  .  1
   O  O38  1  0.460025  0.083911  0.398929  0  .  1
   O  O39  1  0.962439  0.079120  0.219559  0  .  1
   O  O40  1  0.445202  0.113337  0.067295  0  .  1
 
