#\#CIF1.1
##########################################################################
#               Crystallographic Information Format file 
#               Produced by PyCifRW module
# 
#  This is a CIF file.  CIF has been adopted by the International
#  Union of Crystallography as the standard for data archiving and 
#  transmission.
#
#  For information on this file format, follow the CIF links at
#  http://www.iucr.org
##########################################################################

data_NaV6O11
_symmetry_space_group_name_H-M          'P 1'
_cell_length_a                          5.87122985
_cell_length_b                          5.87122985115
_cell_length_c                          13.54413091
_cell_angle_alpha                       90.0
_cell_angle_beta                        90.0
_cell_angle_gamma                       120.00000005
_chemical_name_systematic               'Generated by pymatgen'
_symmetry_Int_Tables_number             1
_chemical_formula_structural            NaV6O11
_chemical_formula_sum                   'Na2 V12 O22'
_cell_volume                            404.333699765
_cell_formula_units_Z                   2
loop_
  _symmetry_equiv_pos_site_id
  _symmetry_equiv_pos_as_xyz
   1  'x, y, z'
 
loop_
  _atom_site_type_symbol
  _atom_site_label
  _atom_site_symmetry_multiplicity
  _atom_site_fract_x
  _atom_site_fract_y
  _atom_site_fract_z
  _atom_site_attached_hydrogens
  _atom_site_B_iso_or_equiv
  _atom_site_occupancy
   O  O1  1  0.175242  0.350484  0.424236  0  .  1
   O  O2  1  0.175242  0.824757  0.424236  0  .  1
   O  O3  1  0.666666  0.333332  0.416798  0  .  1
   O  O4  1  0.333333  0.666667  0.916798  0  .  1
   O  O5  1  0.666666  0.333332  0.082842  0  .  1
   O  O6  1  0.333333  0.666667  0.582842  0  .  1
   O  O7  1  0.852341  0.704683  0.249703  0  .  1
   O  O8  1  0.147658  0.852342  0.749703  0  .  1
   O  O9  1  0.704684  0.852342  0.749703  0  .  1
   O  O10  1  0.295318  0.147659  0.249703  0  .  1
   O  O11  1  0.852342  0.147659  0.249703  0  .  1
   O  O12  1  0.649516  0.824757  0.424236  0  .  1
   O  O13  1  0.173360  0.346719  0.073484  0  .  1
   O  O14  1  0.826640  0.173360  0.573484  0  .  1
   O  O15  1  0.346720  0.173360  0.573484  0  .  1
   O  O16  1  0.653279  0.826640  0.073484  0  .  1
   O  O17  1  0.173361  0.826640  0.073484  0  .  1
   O  O18  1  0.826640  0.653280  0.573484  0  .  1
   O  O19  1  0.824757  0.649515  0.924236  0  .  1
   O  O20  1  0.824758  0.175242  0.924236  0  .  1
   O  O21  1  0.350484  0.175242  0.924236  0  .  1
   O  O22  1  0.147658  0.295316  0.749703  0  .  1
   Na  Na23  1  0.333333  0.666667  0.269477  0  .  1
   Na  Na24  1  0.666666  0.333332  0.769477  0  .  1
   V  V25  1  0.666666  0.333332  0.247913  0  .  1
   V  V26  1  0.333333  0.666667  0.747913  0  .  1
   V  V27  1  0.000000  0.000000  0.851238  0  .  1
   V  V28  1  0.000000  0.000000  0.351238  0  .  1
   V  V29  1  0.000000  0.000000  0.648393  0  .  1
   V  V30  1  0.000000  0.000000  0.148393  0  .  1
   V  V31  1  0.500391  0.000783  0.499964  0  .  1
   V  V32  1  0.499608  0.500392  0.999963  0  .  1
   V  V33  1  0.000784  0.500392  0.999963  0  .  1
   V  V34  1  0.999217  0.499609  0.499964  0  .  1
   V  V35  1  0.500392  0.499609  0.499964  0  .  1
   V  V36  1  0.499608  0.999217  0.999963  0  .  1
 
