#\#CIF1.1
##########################################################################
#               Crystallographic Information Format file 
#               Produced by PyCifRW module
# 
#  This is a CIF file.  CIF has been adopted by the International
#  Union of Crystallography as the standard for data archiving and 
#  transmission.
#
#  For information on this file format, follow the CIF links at
#  http://www.iucr.org
##########################################################################

data_NaV8O20
_symmetry_space_group_name_H-M          'P 1'
_cell_length_a                          12.0806316178
_cell_length_b                          9.60722129626
_cell_length_c                          10.7848716886
_cell_angle_alpha                       103.813453157
_cell_angle_beta                        66.6883200059
_cell_angle_gamma                       95.8801716806
_chemical_name_systematic               'Generated by pymatgen'
_symmetry_Int_Tables_number             1
_chemical_formula_structural            NaV8O20
_chemical_formula_sum                   'Na3 V24 O60'
_cell_volume                            1116.23336548
_cell_formula_units_Z                   3
loop_
  _symmetry_equiv_pos_site_id
  _symmetry_equiv_pos_as_xyz
   1  'x, y, z'
 
loop_
  _atom_site_type_symbol
  _atom_site_label
  _atom_site_symmetry_multiplicity
  _atom_site_fract_x
  _atom_site_fract_y
  _atom_site_fract_z
  _atom_site_attached_hydrogens
  _atom_site_B_iso_or_equiv
  _atom_site_occupancy
   Na  Na1  1  0.951152  0.551385  0.596074  0  .  1
   Na  Na2  1  0.450016  0.050650  0.598550  0  .  1
   Na  Na3  1  0.802804  0.198179  0.399883  0  .  1
   V  V4  1  0.029035  0.911900  0.119383  0  .  1
   V  V5  1  0.010070  0.845539  0.409836  0  .  1
   V  V6  1  0.450435  0.881130  0.103341  0  .  1
   V  V7  1  0.199596  0.629796  0.105158  0  .  1
   V  V8  1  0.300563  0.871849  0.897520  0  .  1
   V  V9  1  0.049096  0.618388  0.898301  0  .  1
   V  V10  1  0.738374  0.904627  0.591153  0  .  1
   V  V11  1  0.489587  0.655646  0.589692  0  .  1
   V  V12  1  0.238717  0.405305  0.589814  0  .  1
   V  V13  1  0.780021  0.662923  0.117720  0  .  1
   V  V14  1  0.278792  0.161498  0.116112  0  .  1
   V  V15  1  0.528106  0.412562  0.115639  0  .  1
   V  V16  1  0.470238  0.587151  0.884713  0  .  1
   V  V17  1  0.721508  0.836079  0.885310  0  .  1
   V  V18  1  0.219914  0.336116  0.886498  0  .  1
   V  V19  1  0.761071  0.595680  0.408983  0  .  1
   V  V20  1  0.510615  0.346786  0.408709  0  .  1
   V  V21  1  0.260439  0.095688  0.410540  0  .  1
   V  V22  1  0.952336  0.378567  0.103286  0  .  1
   V  V23  1  0.703395  0.131608  0.100753  0  .  1
   V  V24  1  0.797586  0.367526  0.898208  0  .  1
   V  V25  1  0.547930  0.120783  0.895459  0  .  1
   V  V26  1  0.989384  0.153343  0.591884  0  .  1
   V  V27  1  0.973274  0.084566  0.884657  0  .  1
   O  O28  1  0.190777  0.998849  0.072036  0  .  1
   O  O29  1  0.086683  0.783178  0.222601  0  .  1
   O  O30  1  0.054399  0.999419  0.728177  0  .  1
   O  O31  1  0.314761  0.995232  0.472537  0  .  1
   O  O32  1  0.056854  0.738012  0.472781  0  .  1
   O  O33  1  0.334040  0.758923  0.053509  0  .  1
   O  O34  1  0.088035  0.512754  0.052982  0  .  1
   O  O35  1  0.467284  0.816466  0.218581  0  .  1
   O  O36  1  0.216244  0.564373  0.219777  0  .  1
   O  O37  1  0.290000  0.937766  0.778110  0  .  1
   O  O38  1  0.029637  0.676637  0.779553  0  .  1
   O  O39  1  0.413828  0.985965  0.946166  0  .  1
   O  O40  1  0.163339  0.744807  0.945998  0  .  1
   O  O41  1  0.441895  0.765402  0.530612  0  .  1
   O  O42  1  0.182334  0.506342  0.530770  0  .  1
   O  O43  1  0.500221  0.500528  0.000266  0  .  1
   O  O44  1  0.748614  0.748616  0.998849  0  .  1
   O  O45  1  0.999828  0.000749  0.996202  0  .  1
   O  O46  1  0.251558  0.251886  0.999231  0  .  1
   O  O47  1  0.696502  0.751772  0.269726  0  .  1
   O  O48  1  0.195611  0.247992  0.269685  0  .  1
   O  O49  1  0.446492  0.499182  0.269798  0  .  1
   O  O50  1  0.412923  0.716600  0.777966  0  .  1
   O  O51  1  0.665911  0.963582  0.774398  0  .  1
   O  O52  1  0.164417  0.468575  0.778484  0  .  1
   O  O53  1  0.935002  0.742053  0.072096  0  .  1
   O  O54  1  0.688828  0.494494  0.074150  0  .  1
   O  O55  1  0.437971  0.245825  0.075648  0  .  1
   O  O56  1  0.645629  0.731360  0.573079  0  .  1
   O  O57  1  0.896246  0.983752  0.573287  0  .  1
   O  O58  1  0.146518  0.231876  0.573916  0  .  1
   O  O59  1  0.395323  0.483091  0.571142  0  .  1
   O  O60  1  0.854181  0.767759  0.427437  0  .  1
   O  O61  1  0.603443  0.516714  0.425425  0  .  1
   O  O62  1  0.353801  0.268468  0.426238  0  .  1
   O  O63  1  0.104920  0.017340  0.428058  0  .  1
   O  O64  1  0.560651  0.755590  0.925913  0  .  1
   O  O65  1  0.064858  0.255263  0.924412  0  .  1
   O  O66  1  0.312456  0.506971  0.926127  0  .  1
   O  O67  1  0.833308  0.536009  0.224875  0  .  1
   O  O68  1  0.585226  0.282154  0.221331  0  .  1
   O  O69  1  0.336206  0.032887  0.221697  0  .  1
   O  O70  1  0.805272  0.748074  0.730143  0  .  1
   O  O71  1  0.553043  0.501429  0.730994  0  .  1
   O  O72  1  0.304111  0.250129  0.730372  0  .  1
   O  O73  1  0.811690  0.489028  0.471309  0  .  1
   O  O74  1  0.562028  0.240245  0.469997  0  .  1
   O  O75  1  0.829288  0.256902  0.053524  0  .  1
   O  O76  1  0.583854  0.008288  0.052318  0  .  1
   O  O77  1  0.959818  0.311745  0.225398  0  .  1
   O  O78  1  0.719089  0.071711  0.221336  0  .  1
   O  O79  1  0.789143  0.436716  0.778600  0  .  1
   O  O80  1  0.529660  0.178756  0.774360  0  .  1
   O  O81  1  0.917697  0.488877  0.947862  0  .  1
   O  O82  1  0.670811  0.243169  0.942453  0  .  1
   O  O83  1  0.938764  0.260730  0.530381  0  .  1
   O  O84  1  0.687424  0.010586  0.528503  0  .  1
   O  O85  1  0.943630  0.001639  0.274139  0  .  1
   O  O86  1  0.915142  0.218151  0.777911  0  .  1
   O  O87  1  0.809811  0.002748  0.925919  0  .  1
 
