#\#CIF1.1
##########################################################################
#               Crystallographic Information Format file 
#               Produced by PyCifRW module
# 
#  This is a CIF file.  CIF has been adopted by the International
#  Union of Crystallography as the standard for data archiving and 
#  transmission.
#
#  For information on this file format, follow the CIF links at
#  http://www.iucr.org
##########################################################################

data_Nd(AgGe)2
_symmetry_space_group_name_H-M          'P 1'
_cell_length_a                          4.31421271852
_cell_length_b                          4.31421271257
_cell_length_c                          6.369435668
_cell_angle_alpha                       109.79557315
_cell_angle_beta                        109.795573126
_cell_angle_gamma                       89.9999999687
_chemical_name_systematic               'Generated by pymatgen'
_symmetry_Int_Tables_number             1
_chemical_formula_structural            Nd(AgGe)2
_chemical_formula_sum                   'Nd1 Ag2 Ge2'
_cell_volume                            104.069117801
_cell_formula_units_Z                   1
loop_
  _symmetry_equiv_pos_site_id
  _symmetry_equiv_pos_as_xyz
   1  'x, y, z'
 
loop_
  _atom_site_type_symbol
  _atom_site_label
  _atom_site_symmetry_multiplicity
  _atom_site_fract_x
  _atom_site_fract_y
  _atom_site_fract_z
  _atom_site_attached_hydrogens
  _atom_site_B_iso_or_equiv
  _atom_site_occupancy
   Ge  Ge1  1  0.609919  0.609919  0.219837  0  .  1
   Ge  Ge2  1  0.390081  0.390081  0.780163  0  .  1
   Ag  Ag3  1  0.250000  0.750000  0.500000  0  .  1
   Ag  Ag4  1  0.750000  0.250000  0.500000  0  .  1
   Nd  Nd5  1  0.000000  0.000000  0.000000  0  .  1
 
