#\#CIF1.1
##########################################################################
#               Crystallographic Information Format file 
#               Produced by PyCifRW module
# 
#  This is a CIF file.  CIF has been adopted by the International
#  Union of Crystallography as the standard for data archiving and 
#  transmission.
#
#  For information on this file format, follow the CIF links at
#  http://www.iucr.org
##########################################################################

data_Nd(CrSi)2
_symmetry_space_group_name_H-M          'P 1'
_cell_length_a                          3.92106492255
_cell_length_b                          3.92063947228
_cell_length_c                          6.08175934899
_cell_angle_alpha                       108.800774794
_cell_angle_beta                        108.807932788
_cell_angle_gamma                       89.942972666
_chemical_name_systematic               'Generated by pymatgen'
_symmetry_Int_Tables_number             1
_chemical_formula_structural            Nd(CrSi)2
_chemical_formula_sum                   'Nd1 Cr2 Si2'
_cell_volume                            83.2267923313
_cell_formula_units_Z                   1
loop_
  _symmetry_equiv_pos_site_id
  _symmetry_equiv_pos_as_xyz
   1  'x, y, z'
 
loop_
  _atom_site_type_symbol
  _atom_site_label
  _atom_site_symmetry_multiplicity
  _atom_site_fract_x
  _atom_site_fract_y
  _atom_site_fract_z
  _atom_site_attached_hydrogens
  _atom_site_B_iso_or_equiv
  _atom_site_occupancy
   Nd  Nd1  1  0.000000  0.000000  0.000000  0  .  1
   Cr  Cr2  1  0.250571  0.749643  0.500202  0  .  1
   Cr  Cr3  1  0.749429  0.250357  0.499798  0  .  1
   Si  Si4  1  0.380131  0.380165  0.760068  0  .  1
   Si  Si5  1  0.619869  0.619835  0.239932  0  .  1
 
