#\#CIF1.1
##########################################################################
#               Crystallographic Information Format file 
#               Produced by PyCifRW module
# 
#  This is a CIF file.  CIF has been adopted by the International
#  Union of Crystallography as the standard for data archiving and 
#  transmission.
#
#  For information on this file format, follow the CIF links at
#  http://www.iucr.org
##########################################################################

data_Ni3S2
_symmetry_space_group_name_H-M          'P 1'
_cell_length_a                          3.21404436
_cell_length_b                          6.84835490512
_cell_length_c                          5.77516770783
_cell_angle_alpha                       89.9957617084
_cell_angle_beta                        73.8433684771
_cell_angle_gamma                       90.0
_chemical_name_systematic               'Generated by pymatgen'
_symmetry_Int_Tables_number             1
_chemical_formula_structural            Ni3S2
_chemical_formula_sum                   'Ni6 S4'
_cell_volume                            122.09620546
_cell_formula_units_Z                   2
loop_
  _symmetry_equiv_pos_site_id
  _symmetry_equiv_pos_as_xyz
   1  'x, y, z'
 
loop_
  _atom_site_type_symbol
  _atom_site_label
  _atom_site_symmetry_multiplicity
  _atom_site_fract_x
  _atom_site_fract_y
  _atom_site_fract_z
  _atom_site_attached_hydrogens
  _atom_site_B_iso_or_equiv
  _atom_site_occupancy
   Ni  Ni1  1  0.462023  0.249978  0.075953  0  .  1
   Ni  Ni2  1  0.537977  0.750018  0.924046  0  .  1
   Ni  Ni3  1  0.665314  0.433969  0.669373  0  .  1
   Ni  Ni4  1  0.334711  0.566055  0.330577  0  .  1
   Ni  Ni5  1  0.665298  0.065985  0.669405  0  .  1
   Ni  Ni6  1  0.334695  0.933986  0.330609  0  .  1
   S  S7  1  0.999972  0.999995  0.000057  0  .  1
   S  S8  1  0.260199  0.250016  0.479602  0  .  1
   S  S9  1  0.739841  0.749999  0.520319  0  .  1
   S  S10  1  0.999970  0.500001  0.000060  0  .  1
 
