#\#CIF1.1
##########################################################################
#               Crystallographic Information Format file 
#               Produced by PyCifRW module
# 
#  This is a CIF file.  CIF has been adopted by the International
#  Union of Crystallography as the standard for data archiving and 
#  transmission.
#
#  For information on this file format, follow the CIF links at
#  http://www.iucr.org
##########################################################################

data_Ni9S10
_symmetry_space_group_name_H-M          'P 1'
_cell_length_a                          5.94881895422
_cell_length_b                          7.79251302277
_cell_length_c                          6.13864648386
_cell_angle_alpha                       79.6985105255
_cell_angle_beta                        90.9361463318
_cell_angle_gamma                       68.854844656
_chemical_name_systematic               'Generated by pymatgen'
_symmetry_Int_Tables_number             1
_chemical_formula_structural            Ni9S10
_chemical_formula_sum                   'Ni9 S10'
_cell_volume                            260.111094811
_cell_formula_units_Z                   1
loop_
  _symmetry_equiv_pos_site_id
  _symmetry_equiv_pos_as_xyz
   1  'x, y, z'
 
loop_
  _atom_site_type_symbol
  _atom_site_label
  _atom_site_symmetry_multiplicity
  _atom_site_fract_x
  _atom_site_fract_y
  _atom_site_fract_z
  _atom_site_attached_hydrogens
  _atom_site_B_iso_or_equiv
  _atom_site_occupancy
   Ni  Ni1  1  0.386717  0.211674  0.820863  0  .  1
   Ni  Ni2  1  0.486436  0.013756  0.496959  0  .  1
   Ni  Ni3  1  0.702893  0.586965  0.911325  0  .  1
   Ni  Ni4  1  0.897048  0.213032  0.288518  0  .  1
   Ni  Ni5  1  0.799855  0.400057  0.599934  0  .  1
   Ni  Ni6  1  0.984107  0.999195  0.996150  0  .  1
   Ni  Ni7  1  0.113560  0.786339  0.703167  0  .  1
   Ni  Ni8  1  0.213269  0.588191  0.379144  0  .  1
   Ni  Ni9  1  0.616278  0.800856  0.204018  0  .  1
   S  S10  1  0.776709  0.098622  0.646901  0  .  1
   S  S11  1  0.010878  0.291387  0.947592  0  .  1
   S  S12  1  0.177086  0.303129  0.464167  0  .  1
   S  S13  1  0.613289  0.102179  0.152066  0  .  1
   S  S14  1  0.422978  0.496843  0.735761  0  .  1
   S  S15  1  0.382004  0.903129  0.851915  0  .  1
   S  S16  1  0.589056  0.508548  0.252313  0  .  1
   S  S17  1  0.823278  0.701348  0.553113  0  .  1
   S  S18  1  0.986756  0.697820  0.048136  0  .  1
   S  S19  1  0.218104  0.896830  0.348057  0  .  1
 
