#\#CIF1.1
##########################################################################
#               Crystallographic Information Format file 
#               Produced by PyCifRW module
# 
#  This is a CIF file.  CIF has been adopted by the International
#  Union of Crystallography as the standard for data archiving and 
#  transmission.
#
#  For information on this file format, follow the CIF links at
#  http://www.iucr.org
##########################################################################

data_NiS2
_symmetry_space_group_name_H-M          'P 1'
_cell_length_a                          5.44602919839
_cell_length_b                          4.79205638789
_cell_length_c                          5.35066314222
_cell_angle_alpha                       90.0478778461
_cell_angle_beta                        90.0079922853
_cell_angle_gamma                       42.506404413
_chemical_name_systematic               'Generated by pymatgen'
_symmetry_Int_Tables_number             1
_chemical_formula_structural            NiS2
_chemical_formula_sum                   'Ni2 S4'
_cell_volume                            94.350792646
_cell_formula_units_Z                   2
loop_
  _symmetry_equiv_pos_site_id
  _symmetry_equiv_pos_as_xyz
   1  'x, y, z'
 
loop_
  _atom_site_type_symbol
  _atom_site_label
  _atom_site_symmetry_multiplicity
  _atom_site_fract_x
  _atom_site_fract_y
  _atom_site_fract_z
  _atom_site_attached_hydrogens
  _atom_site_B_iso_or_equiv
  _atom_site_occupancy
   Ni  Ni1  1  0.754677  0.493177  0.165722  0  .  1
   Ni  Ni2  1  0.246245  0.505152  0.666158  0  .  1
   S  S3  1  0.261514  0.667604  0.051809  0  .  1
   S  S4  1  0.759198  0.670273  0.782526  0  .  1
   S  S5  1  0.240932  0.329864  0.282296  0  .  1
   S  S6  1  0.737433  0.333931  0.551489  0  .  1
 
