#\#CIF1.1
##########################################################################
#               Crystallographic Information Format file 
#               Produced by PyCifRW module
# 
#  This is a CIF file.  CIF has been adopted by the International
#  Union of Crystallography as the standard for data archiving and 
#  transmission.
#
#  For information on this file format, follow the CIF links at
#  http://www.iucr.org
##########################################################################

data_Pr2CuO4
_symmetry_space_group_name_H-M          'P 1'
_cell_length_a                          5.28090518571
_cell_length_b                          5.58346518
_cell_length_c                          6.99267596043
_cell_angle_alpha                       90.0
_cell_angle_beta                        112.185260731
_cell_angle_gamma                       90.0
_chemical_name_systematic               'Generated by pymatgen'
_symmetry_Int_Tables_number             1
_chemical_formula_structural            Pr2CuO4
_chemical_formula_sum                   'Pr4 Cu2 O8'
_cell_volume                            190.920010029
_cell_formula_units_Z                   2
loop_
  _symmetry_equiv_pos_site_id
  _symmetry_equiv_pos_as_xyz
   1  'x, y, z'
 
loop_
  _atom_site_type_symbol
  _atom_site_label
  _atom_site_symmetry_multiplicity
  _atom_site_fract_x
  _atom_site_fract_y
  _atom_site_fract_z
  _atom_site_attached_hydrogens
  _atom_site_B_iso_or_equiv
  _atom_site_occupancy
   O  O1  1  0.185965  0.931468  0.371931  0  .  1
   O  O2  1  0.814035  0.068532  0.628069  0  .  1
   O  O3  1  0.314035  0.431468  0.628069  0  .  1
   O  O4  1  0.685965  0.568532  0.371931  0  .  1
   O  O5  1  0.265108  0.250000  0.030216  0  .  1
   O  O6  1  0.234892  0.750000  0.969784  0  .  1
   O  O7  1  0.765108  0.250000  0.030216  0  .  1
   O  O8  1  0.734892  0.750000  0.969784  0  .  1
   Cu  Cu9  1  0.000000  0.000000  0.000000  0  .  1
   Cu  Cu10  1  0.500000  0.500000  0.000000  0  .  1
   Pr  Pr11  1  0.361330  0.016604  0.722660  0  .  1
   Pr  Pr12  1  0.638670  0.983396  0.277340  0  .  1
   Pr  Pr13  1  0.138670  0.516604  0.277340  0  .  1
   Pr  Pr14  1  0.861330  0.483396  0.722660  0  .  1
 
