#\#CIF1.1
##########################################################################
#               Crystallographic Information Format file 
#               Produced by PyCifRW module
# 
#  This is a CIF file.  CIF has been adopted by the International
#  Union of Crystallography as the standard for data archiving and 
#  transmission.
#
#  For information on this file format, follow the CIF links at
#  http://www.iucr.org
##########################################################################

data_Rb2CaV2O7
_symmetry_space_group_name_H-M          'P 1'
_cell_length_a                          6.07976486
_cell_length_b                          10.4985914629
_cell_length_c                          14.2306505755
_cell_angle_alpha                       104.980093826
_cell_angle_beta                        90.0
_cell_angle_gamma                       90.0
_chemical_name_systematic               'Generated by pymatgen'
_symmetry_Int_Tables_number             1
_chemical_formula_structural            Rb2CaV2O7
_chemical_formula_sum                   'Rb8 Ca4 V8 O28'
_cell_volume                            877.458840353
_cell_formula_units_Z                   4
loop_
  _symmetry_equiv_pos_site_id
  _symmetry_equiv_pos_as_xyz
   1  'x, y, z'
 
loop_
  _atom_site_type_symbol
  _atom_site_label
  _atom_site_symmetry_multiplicity
  _atom_site_fract_x
  _atom_site_fract_y
  _atom_site_fract_z
  _atom_site_attached_hydrogens
  _atom_site_B_iso_or_equiv
  _atom_site_occupancy
   Rb  Rb1  1  0.234817  0.857314  0.830690  0  .  1
   Rb  Rb2  1  0.275010  0.629530  0.130214  0  .  1
   Rb  Rb3  1  0.765183  0.142686  0.169310  0  .  1
   Rb  Rb4  1  0.734817  0.642686  0.669310  0  .  1
   Rb  Rb5  1  0.265183  0.357314  0.330690  0  .  1
   Rb  Rb6  1  0.724990  0.370470  0.869786  0  .  1
   Rb  Rb7  1  0.775010  0.870470  0.369786  0  .  1
   Rb  Rb8  1  0.224990  0.129530  0.630214  0  .  1
   Ca  Ca9  1  0.760400  0.748450  0.978337  0  .  1
   Ca  Ca10  1  0.739600  0.248450  0.478337  0  .  1
   Ca  Ca11  1  0.260400  0.751550  0.521663  0  .  1
   Ca  Ca12  1  0.239600  0.251550  0.021663  0  .  1
   V  V13  1  0.265690  0.023063  0.360930  0  .  1
   V  V14  1  0.271560  0.949223  0.122233  0  .  1
   V  V15  1  0.728440  0.050777  0.877767  0  .  1
   V  V16  1  0.734310  0.976937  0.639069  0  .  1
   V  V17  1  0.228440  0.449223  0.622233  0  .  1
   V  V18  1  0.234310  0.523063  0.860931  0  .  1
   V  V19  1  0.765690  0.476937  0.139070  0  .  1
   V  V20  1  0.771560  0.550777  0.377767  0  .  1
   O  O21  1  0.812945  0.078640  0.760124  0  .  1
   O  O22  1  0.054018  0.131560  0.401759  0  .  1
   O  O23  1  0.729618  0.884161  0.869933  0  .  1
   O  O24  1  0.229618  0.615839  0.630067  0  .  1
   O  O25  1  0.083604  0.864292  0.040369  0  .  1
   O  O26  1  0.270382  0.115839  0.130067  0  .  1
   O  O27  1  0.509788  0.104623  0.356429  0  .  1
   O  O28  1  0.530816  0.884010  0.095745  0  .  1
   O  O29  1  0.916396  0.135708  0.959631  0  .  1
   O  O30  1  0.445982  0.631560  0.901759  0  .  1
   O  O31  1  0.490212  0.895377  0.643571  0  .  1
   O  O32  1  0.009788  0.395377  0.143571  0  .  1
   O  O33  1  0.945982  0.868440  0.598241  0  .  1
   O  O34  1  0.030816  0.615990  0.404255  0  .  1
   O  O35  1  0.969184  0.384010  0.595745  0  .  1
   O  O36  1  0.416396  0.364292  0.540369  0  .  1
   O  O37  1  0.554018  0.368440  0.098241  0  .  1
   O  O38  1  0.708014  0.084831  0.567254  0  .  1
   O  O39  1  0.291986  0.915169  0.432746  0  .  1
   O  O40  1  0.187055  0.921360  0.239876  0  .  1
   O  O41  1  0.583604  0.635708  0.459631  0  .  1
   O  O42  1  0.208014  0.415169  0.932746  0  .  1
   O  O43  1  0.990212  0.604623  0.856429  0  .  1
   O  O44  1  0.770382  0.384161  0.369933  0  .  1
   O  O45  1  0.687055  0.578640  0.260124  0  .  1
   O  O46  1  0.312945  0.421360  0.739876  0  .  1
   O  O47  1  0.791986  0.584831  0.067254  0  .  1
   O  O48  1  0.469184  0.115990  0.904255  0  .  1
 
