#\#CIF1.1
##########################################################################
#               Crystallographic Information Format file 
#               Produced by PyCifRW module
# 
#  This is a CIF file.  CIF has been adopted by the International
#  Union of Crystallography as the standard for data archiving and 
#  transmission.
#
#  For information on this file format, follow the CIF links at
#  http://www.iucr.org
##########################################################################

data_Sb2Te
_symmetry_space_group_name_H-M          'P 1'
_cell_length_a                          4.36584393
_cell_length_b                          4.36584392548
_cell_length_c                          17.83034645
_cell_angle_alpha                       90.0
_cell_angle_beta                        90.0
_cell_angle_gamma                       119.999999959
_chemical_name_systematic               'Generated by pymatgen'
_symmetry_Int_Tables_number             1
_chemical_formula_structural            Sb2Te
_chemical_formula_sum                   'Sb6 Te3'
_cell_volume                            294.324778736
_cell_formula_units_Z                   3
loop_
  _symmetry_equiv_pos_site_id
  _symmetry_equiv_pos_as_xyz
   1  'x, y, z'
 
loop_
  _atom_site_type_symbol
  _atom_site_label
  _atom_site_symmetry_multiplicity
  _atom_site_fract_x
  _atom_site_fract_y
  _atom_site_fract_z
  _atom_site_attached_hydrogens
  _atom_site_B_iso_or_equiv
  _atom_site_occupancy
   Sb  Sb1  1  0.000000  0.000000  0.651951  0  .  1
   Sb  Sb2  1  0.000000  0.000000  0.348049  0  .  1
   Sb  Sb3  1  0.666667  0.333333  0.434498  0  .  1
   Sb  Sb4  1  0.333333  0.666667  0.889429  0  .  1
   Sb  Sb5  1  0.666667  0.333333  0.110571  0  .  1
   Sb  Sb6  1  0.333333  0.666667  0.565502  0  .  1
   Te  Te7  1  0.000000  0.000000  0.000000  0  .  1
   Te  Te8  1  0.666667  0.333333  0.794027  0  .  1
   Te  Te9  1  0.333333  0.666667  0.205973  0  .  1
 
