#\#CIF1.1
##########################################################################
#               Crystallographic Information Format file 
#               Produced by PyCifRW module
# 
#  This is a CIF file.  CIF has been adopted by the International
#  Union of Crystallography as the standard for data archiving and 
#  transmission.
#
#  For information on this file format, follow the CIF links at
#  http://www.iucr.org
##########################################################################

data_Sm(AlZn)2
_symmetry_space_group_name_H-M          'P 1'
_cell_length_a                          4.1670400909
_cell_length_b                          4.1670359838
_cell_length_c                          6.23900743059
_cell_angle_alpha                       109.506464736
_cell_angle_beta                        109.506558801
_cell_angle_gamma                       90.001260032
_chemical_name_systematic               'Generated by pymatgen'
_symmetry_Int_Tables_number             1
_chemical_formula_structural            Sm(AlZn)2
_chemical_formula_sum                   'Sm1 Al2 Zn2'
_cell_volume                            95.4949443793
_cell_formula_units_Z                   1
loop_
  _symmetry_equiv_pos_site_id
  _symmetry_equiv_pos_as_xyz
   1  'x, y, z'
 
loop_
  _atom_site_type_symbol
  _atom_site_label
  _atom_site_symmetry_multiplicity
  _atom_site_fract_x
  _atom_site_fract_y
  _atom_site_fract_z
  _atom_site_attached_hydrogens
  _atom_site_B_iso_or_equiv
  _atom_site_occupancy
   Sm  Sm1  1  0.000000  0.000000  0.000000  0  .  1
   Al  Al2  1  0.249963  0.750037  0.500000  0  .  1
   Al  Al3  1  0.750037  0.249963  0.500000  0  .  1
   Zn  Zn4  1  0.610405  0.610404  0.220778  0  .  1
   Zn  Zn5  1  0.389595  0.389596  0.779222  0  .  1
 
