#\#CIF1.1
##########################################################################
#               Crystallographic Information Format file 
#               Produced by PyCifRW module
# 
#  This is a CIF file.  CIF has been adopted by the International
#  Union of Crystallography as the standard for data archiving and 
#  transmission.
#
#  For information on this file format, follow the CIF links at
#  http://www.iucr.org
##########################################################################

data_Sm(CoGe)2
_symmetry_space_group_name_H-M          'P 1'
_cell_length_a                          3.9991987876
_cell_length_b                          3.99919878476
_cell_length_c                          5.85035628222
_cell_angle_alpha                       109.986031867
_cell_angle_beta                        109.986031812
_cell_angle_gamma                       90.0000000943
_chemical_name_systematic               'Generated by pymatgen'
_symmetry_Int_Tables_number             1
_chemical_formula_structural            Sm(CoGe)2
_chemical_formula_sum                   'Sm1 Co2 Ge2'
_cell_volume                            81.9113491781
_cell_formula_units_Z                   1
loop_
  _symmetry_equiv_pos_site_id
  _symmetry_equiv_pos_as_xyz
   1  'x, y, z'
 
loop_
  _atom_site_type_symbol
  _atom_site_label
  _atom_site_symmetry_multiplicity
  _atom_site_fract_x
  _atom_site_fract_y
  _atom_site_fract_z
  _atom_site_attached_hydrogens
  _atom_site_B_iso_or_equiv
  _atom_site_occupancy
   Co  Co1  1  0.250000  0.750000  0.500000  0  .  1
   Co  Co2  1  0.750000  0.250000  0.500000  0  .  1
   Ge  Ge3  1  0.630093  0.630093  0.260186  0  .  1
   Ge  Ge4  1  0.369907  0.369907  0.739814  0  .  1
   Sm  Sm5  1  0.000000  0.000000  0.000000  0  .  1
 
