#\#CIF1.1
##########################################################################
#               Crystallographic Information Format file 
#               Produced by PyCifRW module
# 
#  This is a CIF file.  CIF has been adopted by the International
#  Union of Crystallography as the standard for data archiving and 
#  transmission.
#
#  For information on this file format, follow the CIF links at
#  http://www.iucr.org
##########################################################################

data_Sm(GeRh)2
_symmetry_space_group_name_H-M          'P 1'
_cell_length_a                          4.16921479206
_cell_length_b                          4.16921478748
_cell_length_c                          6.01773111112
_cell_angle_alpha                       110.267943603
_cell_angle_beta                        110.267943592
_cell_angle_gamma                       89.9999999248
_chemical_name_systematic               'Generated by pymatgen'
_symmetry_Int_Tables_number             1
_chemical_formula_structural            Sm(GeRh)2
_chemical_formula_sum                   'Sm1 Ge2 Rh2'
_cell_volume                            91.1901307146
_cell_formula_units_Z                   1
loop_
  _symmetry_equiv_pos_site_id
  _symmetry_equiv_pos_as_xyz
   1  'x, y, z'
 
loop_
  _atom_site_type_symbol
  _atom_site_label
  _atom_site_symmetry_multiplicity
  _atom_site_fract_x
  _atom_site_fract_y
  _atom_site_fract_z
  _atom_site_attached_hydrogens
  _atom_site_B_iso_or_equiv
  _atom_site_occupancy
   Ge  Ge1  1  0.622961  0.622961  0.245922  0  .  1
   Ge  Ge2  1  0.377039  0.377039  0.754078  0  .  1
   Rh  Rh3  1  0.250000  0.750000  0.500000  0  .  1
   Rh  Rh4  1  0.750000  0.250000  0.500000  0  .  1
   Sm  Sm5  1  0.000000  0.000000  0.000000  0  .  1
 
