#\#CIF1.1
##########################################################################
#               Crystallographic Information Format file 
#               Produced by PyCifRW module
# 
#  This is a CIF file.  CIF has been adopted by the International
#  Union of Crystallography as the standard for data archiving and 
#  transmission.
#
#  For information on this file format, follow the CIF links at
#  http://www.iucr.org
##########################################################################

data_SmSI
_symmetry_space_group_name_H-M          'P 1'
_cell_length_a                          11.4517115243
_cell_length_b                          11.451711389
_cell_length_c                          11.4517112438
_cell_angle_alpha                       23.2032424094
_cell_angle_beta                        23.2032439753
_cell_angle_gamma                       23.203244468
_chemical_name_systematic               'Generated by pymatgen'
_symmetry_Int_Tables_number             1
_chemical_formula_structural            SmSI
_chemical_formula_sum                   'Sm2 S2 I2'
_cell_volume                            204.650688333
_cell_formula_units_Z                   2
loop_
  _symmetry_equiv_pos_site_id
  _symmetry_equiv_pos_as_xyz
   1  'x, y, z'
 
loop_
  _atom_site_type_symbol
  _atom_site_label
  _atom_site_symmetry_multiplicity
  _atom_site_fract_x
  _atom_site_fract_y
  _atom_site_fract_z
  _atom_site_attached_hydrogens
  _atom_site_B_iso_or_equiv
  _atom_site_occupancy
   Sm  Sm1  1  0.386591  0.386591  0.386591  0  .  1
   Sm  Sm2  1  0.613409  0.613409  0.613409  0  .  1
   S  S3  1  0.301940  0.301940  0.301940  0  .  1
   S  S4  1  0.698060  0.698060  0.698060  0  .  1
   I  I5  1  0.113218  0.113218  0.113218  0  .  1
   I  I6  1  0.886782  0.886782  0.886782  0  .  1
 
