#\#CIF1.1
##########################################################################
#               Crystallographic Information Format file 
#               Produced by PyCifRW module
# 
#  This is a CIF file.  CIF has been adopted by the International
#  Union of Crystallography as the standard for data archiving and 
#  transmission.
#
#  For information on this file format, follow the CIF links at
#  http://www.iucr.org
##########################################################################

data_Sr(FeS2)2
_symmetry_space_group_name_H-M          'P 1'
_cell_length_a                          5.2296266
_cell_length_b                          30.2143741341
_cell_length_c                          10.68322564
_cell_angle_alpha                       44.9955476863
_cell_angle_beta                        90.0
_cell_angle_gamma                       90.0
_chemical_name_systematic               'Generated by pymatgen'
_symmetry_Int_Tables_number             1
_chemical_formula_structural            Sr(FeS2)2
_chemical_formula_sum                   'Sr8 Fe16 S32'
_cell_volume                            1193.54263271
_cell_formula_units_Z                   8
loop_
  _symmetry_equiv_pos_site_id
  _symmetry_equiv_pos_as_xyz
   1  'x, y, z'
 
loop_
  _atom_site_type_symbol
  _atom_site_label
  _atom_site_symmetry_multiplicity
  _atom_site_fract_x
  _atom_site_fract_y
  _atom_site_fract_z
  _atom_site_attached_hydrogens
  _atom_site_B_iso_or_equiv
  _atom_site_occupancy
   Fe  Fe1  1  0.999960  0.374619  0.250261  0  .  1
   Fe  Fe2  1  0.999960  0.625381  0.249739  0  .  1
   Fe  Fe3  1  0.500131  0.124821  0.250973  0  .  1
   Fe  Fe4  1  0.500131  0.375179  0.250259  0  .  1
   Fe  Fe5  1  0.499869  0.124821  0.749741  0  .  1
   Fe  Fe6  1  0.500131  0.624821  0.249741  0  .  1
   Fe  Fe7  1  0.499869  0.375179  0.749027  0  .  1
   Fe  Fe8  1  0.499869  0.624821  0.750973  0  .  1
   Fe  Fe9  1  0.500131  0.875179  0.249027  0  .  1
   Fe  Fe10  1  0.499869  0.875179  0.750259  0  .  1
   Fe  Fe11  1  0.999960  0.125381  0.248739  0  .  1
   Fe  Fe12  1  0.000040  0.125381  0.749739  0  .  1
   Fe  Fe13  1  0.999960  0.874619  0.251261  0  .  1
   Fe  Fe14  1  0.000040  0.374619  0.751261  0  .  1
   Fe  Fe15  1  0.000040  0.625381  0.748739  0  .  1
   Fe  Fe16  1  0.000040  0.874619  0.750261  0  .  1
   S  S17  1  0.251561  0.375186  0.090512  0  .  1
   S  S18  1  0.251561  0.124814  0.091256  0  .  1
   S  S19  1  0.249097  0.125162  0.408882  0  .  1
   S  S20  1  0.248953  0.045524  0.908562  0  .  1
   S  S21  1  0.251366  0.204654  0.590685  0  .  1
   S  S22  1  0.249097  0.374838  0.409528  0  .  1
   S  S23  1  0.249097  0.625162  0.090472  0  .  1
   S  S24  1  0.251366  0.295346  0.909302  0  .  1
   S  S25  1  0.248953  0.454476  0.590657  0  .  1
   S  S26  1  0.251561  0.624814  0.409488  0  .  1
   S  S27  1  0.248953  0.545524  0.909343  0  .  1
   S  S28  1  0.249097  0.874838  0.091118  0  .  1
   S  S29  1  0.251366  0.704654  0.590698  0  .  1
   S  S30  1  0.251561  0.875186  0.408744  0  .  1
   S  S31  1  0.251366  0.795346  0.909315  0  .  1
   S  S32  1  0.248953  0.954476  0.591438  0  .  1
   S  S33  1  0.748634  0.204654  0.090698  0  .  1
   S  S34  1  0.751047  0.045524  0.409343  0  .  1
   S  S35  1  0.750903  0.125162  0.590472  0  .  1
   S  S36  1  0.748439  0.124814  0.909488  0  .  1
   S  S37  1  0.748634  0.295346  0.409315  0  .  1
   S  S38  1  0.751047  0.454476  0.091438  0  .  1
   S  S39  1  0.750903  0.374838  0.591118  0  .  1
   S  S40  1  0.748634  0.704654  0.090685  0  .  1
   S  S41  1  0.751047  0.954476  0.090657  0  .  1
   S  S42  1  0.748439  0.875186  0.590512  0  .  1
   S  S43  1  0.748439  0.375186  0.908744  0  .  1
   S  S44  1  0.751047  0.545524  0.408562  0  .  1
   S  S45  1  0.748439  0.624814  0.591256  0  .  1
   S  S46  1  0.748634  0.795346  0.409302  0  .  1
   S  S47  1  0.750903  0.874838  0.909528  0  .  1
   S  S48  1  0.750903  0.625162  0.908882  0  .  1
   Sr  Sr49  1  0.000000  0.249734  0.750532  0  .  1
   Sr  Sr50  1  0.000000  0.500000  0.750000  0  .  1
   Sr  Sr51  1  0.000000  0.750266  0.749468  0  .  1
   Sr  Sr52  1  0.500000  0.500000  0.250000  0  .  1
   Sr  Sr53  1  0.500000  0.000000  0.750000  0  .  1
   Sr  Sr54  1  0.000000  0.250266  0.249468  0  .  1
   Sr  Sr55  1  0.000000  0.749734  0.250532  0  .  1
   Sr  Sr56  1  0.000000  0.000000  0.250000  0  .  1
 
