#\#CIF1.1
##########################################################################
#               Crystallographic Information Format file 
#               Produced by PyCifRW module
# 
#  This is a CIF file.  CIF has been adopted by the International
#  Union of Crystallography as the standard for data archiving and 
#  transmission.
#
#  For information on this file format, follow the CIF links at
#  http://www.iucr.org
##########################################################################

data_Sr(NiAs)2
_symmetry_space_group_name_H-M          'P 1'
_cell_length_a                          4.16948909394
_cell_length_b                          4.16948909239
_cell_length_c                          5.96158831574
_cell_angle_alpha                       110.468732077
_cell_angle_beta                        110.468732051
_cell_angle_gamma                       90.0000000184
_chemical_name_systematic               'Generated by pymatgen'
_symmetry_Int_Tables_number             1
_chemical_formula_structural            Sr(NiAs)2
_chemical_formula_sum                   'Sr1 Ni2 As2'
_cell_volume                            90.0789671057
_cell_formula_units_Z                   1
loop_
  _symmetry_equiv_pos_site_id
  _symmetry_equiv_pos_as_xyz
   1  'x, y, z'
 
loop_
  _atom_site_type_symbol
  _atom_site_label
  _atom_site_symmetry_multiplicity
  _atom_site_fract_x
  _atom_site_fract_y
  _atom_site_fract_z
  _atom_site_attached_hydrogens
  _atom_site_B_iso_or_equiv
  _atom_site_occupancy
   Ni  Ni1  1  0.250000  0.750000  0.500000  0  .  1
   Ni  Ni2  1  0.750000  0.250000  0.500000  0  .  1
   As  As3  1  0.638980  0.638980  0.277961  0  .  1
   As  As4  1  0.361019  0.361019  0.722039  0  .  1
   Sr  Sr5  1  0.000000  0.000000  0.000000  0  .  1
 
