#\#CIF1.1
##########################################################################
#               Crystallographic Information Format file 
#               Produced by PyCifRW module
# 
#  This is a CIF file.  CIF has been adopted by the International
#  Union of Crystallography as the standard for data archiving and 
#  transmission.
#
#  For information on this file format, follow the CIF links at
#  http://www.iucr.org
##########################################################################

data_Sr12Fe8O27
_symmetry_space_group_name_H-M          'P 1'
_cell_length_a                          10.5631431311
_cell_length_b                          7.83485776538
_cell_length_c                          8.76169639875
_cell_angle_alpha                       63.4293641631
_cell_angle_beta                        75.5958189053
_cell_angle_gamma                       79.3113378345
_chemical_name_systematic               'Generated by pymatgen'
_symmetry_Int_Tables_number             1
_chemical_formula_structural            Sr12Fe8O27
_chemical_formula_sum                   'Sr12 Fe8 O27'
_cell_volume                            625.843865596
_cell_formula_units_Z                   1
loop_
  _symmetry_equiv_pos_site_id
  _symmetry_equiv_pos_as_xyz
   1  'x, y, z'
 
loop_
  _atom_site_type_symbol
  _atom_site_label
  _atom_site_symmetry_multiplicity
  _atom_site_fract_x
  _atom_site_fract_y
  _atom_site_fract_z
  _atom_site_attached_hydrogens
  _atom_site_B_iso_or_equiv
  _atom_site_occupancy
   Sr  Sr1  1  0.637115  0.919815  0.839237  0  .  1
   Sr  Sr2  1  0.633899  0.423070  0.839894  0  .  1
   Sr  Sr3  1  0.000280  0.870720  0.741544  0  .  1
   Sr  Sr4  1  0.365913  0.828994  0.656145  0  .  1
   Sr  Sr5  1  0.999983  0.387436  0.741914  0  .  1
   Sr  Sr6  1  0.365794  0.331220  0.657708  0  .  1
   Sr  Sr7  1  0.634206  0.668780  0.342292  0  .  1
   Sr  Sr8  1  0.634087  0.171006  0.343855  0  .  1
   Sr  Sr9  1  0.000017  0.612564  0.258086  0  .  1
   Sr  Sr10  1  0.366101  0.576930  0.160106  0  .  1
   Sr  Sr11  1  0.362885  0.080185  0.160763  0  .  1
   Sr  Sr12  1  0.999720  0.129280  0.258456  0  .  1
   Fe  Fe13  1  0.210170  0.973428  0.947251  0  .  1
   Fe  Fe14  1  0.191960  0.476548  0.951771  0  .  1
   Fe  Fe15  1  0.805897  0.775124  0.545981  0  .  1
   Fe  Fe16  1  0.805744  0.273682  0.550638  0  .  1
   Fe  Fe17  1  0.194256  0.726318  0.449362  0  .  1
   Fe  Fe18  1  0.194103  0.224876  0.454019  0  .  1
   Fe  Fe19  1  0.808040  0.523452  0.048229  0  .  1
   Fe  Fe20  1  0.789830  0.026572  0.052749  0  .  1
   O  O21  1  0.397852  0.948623  0.899685  0  .  1
   O  O22  1  0.179909  0.737573  0.954833  0  .  1
   O  O23  1  0.808797  0.647342  0.799223  0  .  1
   O  O24  1  0.384473  0.453729  0.903184  0  .  1
   O  O25  1  0.180308  0.217359  0.954794  0  .  1
   O  O26  1  0.820414  0.143277  0.804213  0  .  1
   O  O27  1  0.612957  0.800396  0.589832  0  .  1
   O  O28  1  0.191157  0.600353  0.703516  0  .  1
   O  O29  1  0.808992  0.523987  0.547656  0  .  1
   O  O30  1  0.612660  0.297192  0.602348  0  .  1
   O  O31  1  0.808956  0.024035  0.547303  0  .  1
   O  O32  1  0.179516  0.097886  0.714442  0  .  1
   O  O33  1  0.820484  0.902114  0.285558  0  .  1
   O  O34  1  0.999787  0.748370  0.503261  0  .  1
   O  O35  1  0.191044  0.975965  0.452697  0  .  1
   O  O36  1  0.387340  0.702808  0.397652  0  .  1
   O  O37  1  0.808843  0.399647  0.296484  0  .  1
   O  O38  1  0.387043  0.199604  0.410168  0  .  1
   O  O39  1  0.000213  0.251630  0.496739  0  .  1
   O  O40  1  0.191008  0.476013  0.452344  0  .  1
   O  O41  1  0.820091  0.262427  0.045167  0  .  1
   O  O42  1  0.615527  0.546271  0.096816  0  .  1
   O  O43  1  0.179586  0.856723  0.195787  0  .  1
   O  O44  1  0.819692  0.782641  0.045206  0  .  1
   O  O45  1  0.602148  0.051377  0.100315  0  .  1
   O  O46  1  0.191203  0.352658  0.200777  0  .  1
   O  O47  1  0.000000  0.500000  0.000000  0  .  1
 
