#\#CIF1.1
##########################################################################
#               Crystallographic Information Format file 
#               Produced by PyCifRW module
# 
#  This is a CIF file.  CIF has been adopted by the International
#  Union of Crystallography as the standard for data archiving and 
#  transmission.
#
#  For information on this file format, follow the CIF links at
#  http://www.iucr.org
##########################################################################

data_Sr14Fe14O39
_symmetry_space_group_name_H-M          'P 1'
_cell_length_a                          5.57343699677
_cell_length_b                          38.9054794958
_cell_length_c                          14.7064882932
_cell_angle_alpha                       19.071745995
_cell_angle_beta                        55.2820706385
_cell_angle_gamma                       59.8254328513
_chemical_name_systematic               'Generated by pymatgen'
_symmetry_Int_Tables_number             1
_chemical_formula_structural            Sr14Fe14O39
_chemical_formula_sum                   'Sr14 Fe14 O39'
_cell_volume                            848.901338026
_cell_formula_units_Z                   1
loop_
  _symmetry_equiv_pos_site_id
  _symmetry_equiv_pos_as_xyz
   1  'x, y, z'
 
loop_
  _atom_site_type_symbol
  _atom_site_label
  _atom_site_symmetry_multiplicity
  _atom_site_fract_x
  _atom_site_fract_y
  _atom_site_fract_z
  _atom_site_attached_hydrogens
  _atom_site_B_iso_or_equiv
  _atom_site_occupancy
   Sr  Sr1  1  0.247382  0.115887  0.230111  0  .  1
   Sr  Sr2  1  0.255751  0.256381  0.226971  0  .  1
   Sr  Sr3  1  0.254286  0.393655  0.240850  0  .  1
   Sr  Sr4  1  0.770475  0.037096  0.736170  0  .  1
   Sr  Sr5  1  0.734846  0.182072  0.747624  0  .  1
   Sr  Sr6  1  0.240857  0.537232  0.255245  0  .  1
   Sr  Sr7  1  0.735159  0.317513  0.765070  0  .  1
   Sr  Sr8  1  0.254756  0.668202  0.271874  0  .  1
   Sr  Sr9  1  0.752869  0.466030  0.743552  0  .  1
   Sr  Sr10  1  0.254379  0.821146  0.248956  0  .  1
   Sr  Sr11  1  0.245185  0.958227  0.270613  0  .  1
   Sr  Sr12  1  0.770940  0.611575  0.729799  0  .  1
   Sr  Sr13  1  0.744579  0.745452  0.764574  0  .  1
   Sr  Sr14  1  0.749872  0.892300  0.751985  0  .  1
   Fe  Fe15  1  0.981833  0.992313  0.013545  0  .  1
   Fe  Fe16  1  0.507397  0.072456  0.494243  0  .  1
   Fe  Fe17  1  0.001253  0.139738  0.008422  0  .  1
   Fe  Fe18  1  0.002333  0.429943  0.996966  0  .  1
   Fe  Fe19  1  0.518188  0.220707  0.486292  0  .  1
   Fe  Fe20  1  0.994520  0.286463  0.998385  0  .  1
   Fe  Fe21  1  0.522979  0.351146  0.512411  0  .  1
   Fe  Fe22  1  0.504920  0.498973  0.500853  0  .  1
   Fe  Fe23  1  0.976111  0.580562  0.978315  0  .  1
   Fe  Fe24  1  0.984145  0.854526  0.017297  0  .  1
   Fe  Fe25  1  0.509554  0.643249  0.496161  0  .  1
   Fe  Fe26  1  0.996087  0.714447  0.001792  0  .  1
   Fe  Fe27  1  0.480557  0.785655  0.504093  0  .  1
   Fe  Fe28  1  0.524562  0.932855  0.476349  0  .  1
   O  O29  1  0.245352  0.031916  0.269673  0  .  1
   O  O30  1  0.249385  0.180914  0.241235  0  .  1
   O  O31  1  0.714529  0.025160  0.292904  0  .  1
   O  O32  1  0.753525  0.109781  0.243606  0  .  1
   O  O33  1  0.266827  0.039511  0.740858  0  .  1
   O  O34  1  0.226751  0.308228  0.289383  0  .  1
   O  O35  1  0.757606  0.180421  0.242138  0  .  1
   O  O36  1  0.710391  0.237788  0.287689  0  .  1
   O  O37  1  0.239306  0.161578  0.786309  0  .  1
   O  O38  1  0.757243  0.108551  0.743029  0  .  1
   O  O39  1  0.250875  0.261428  0.716896  0  .  1
   O  O40  1  0.746414  0.325009  0.246285  0  .  1
   O  O41  1  0.242068  0.334629  0.709442  0  .  1
   O  O42  1  0.721523  0.403890  0.230624  0  .  1
   O  O43  1  0.757993  0.245129  0.756941  0  .  1
   O  O44  1  0.757865  0.464211  0.246550  0  .  1
   O  O45  1  0.266622  0.608771  0.239039  0  .  1
   O  O46  1  0.240360  0.390842  0.757570  0  .  1
   O  O47  1  0.253734  0.463222  0.752024  0  .  1
   O  O48  1  0.781605  0.525073  0.268055  0  .  1
   O  O49  1  0.744790  0.390820  0.757735  0  .  1
   O  O50  1  0.258526  0.754122  0.232159  0  .  1
   O  O51  1  0.754731  0.606663  0.248651  0  .  1
   O  O52  1  0.251162  0.532259  0.759515  0  .  1
   O  O53  1  0.264896  0.604907  0.757400  0  .  1
   O  O54  1  0.755640  0.675779  0.254712  0  .  1
   O  O55  1  0.756672  0.538585  0.741620  0  .  1
   O  O56  1  0.254673  0.901998  0.227709  0  .  1
   O  O57  1  0.783369  0.757858  0.217490  0  .  1
   O  O58  1  0.248277  0.672356  0.766680  0  .  1
   O  O59  1  0.232544  0.755339  0.741627  0  .  1
   O  O60  1  0.733722  0.819522  0.258432  0  .  1
   O  O61  1  0.732752  0.681354  0.747806  0  .  1
   O  O62  1  0.250570  0.827350  0.741416  0  .  1
   O  O63  1  0.737726  0.890142  0.257400  0  .  1
   O  O64  1  0.792083  0.981020  0.200810  0  .  1
   O  O65  1  0.720538  0.822393  0.760020  0  .  1
   O  O66  1  0.254842  0.962124  0.747370  0  .  1
   O  O67  1  0.781061  0.963240  0.738870  0  .  1
 
