#\#CIF1.1
##########################################################################
#               Crystallographic Information Format file 
#               Produced by PyCifRW module
# 
#  This is a CIF file.  CIF has been adopted by the International
#  Union of Crystallography as the standard for data archiving and 
#  transmission.
#
#  For information on this file format, follow the CIF links at
#  http://www.iucr.org
##########################################################################

data_Sr16Fe16O41
_symmetry_space_group_name_H-M          'P 1'
_cell_length_a                          5.63752966096
_cell_length_b                          5.6199366814
_cell_length_c                          44.864406574
_cell_angle_alpha                       60.2547615785
_cell_angle_beta                        59.8113584396
_cell_angle_gamma                       59.8986456748
_chemical_name_systematic               'Generated by pymatgen'
_symmetry_Int_Tables_number             1
_chemical_formula_structural            Sr16Fe16O41
_chemical_formula_sum                   'Sr16 Fe16 O41'
_cell_volume                            1004.79365785
_cell_formula_units_Z                   1
loop_
  _symmetry_equiv_pos_site_id
  _symmetry_equiv_pos_as_xyz
   1  'x, y, z'
 
loop_
  _atom_site_type_symbol
  _atom_site_label
  _atom_site_symmetry_multiplicity
  _atom_site_fract_x
  _atom_site_fract_y
  _atom_site_fract_z
  _atom_site_attached_hydrogens
  _atom_site_B_iso_or_equiv
  _atom_site_occupancy
   Sr  Sr1  1  0.260065  0.257838  0.027845  0  .  1
   Sr  Sr2  1  0.250000  0.250000  0.156250  0  .  1
   Sr  Sr3  1  0.749586  0.752983  0.093066  0  .  1
   Sr  Sr4  1  0.239935  0.242162  0.284655  0  .  1
   Sr  Sr5  1  0.750414  0.747017  0.219434  0  .  1
   Sr  Sr6  1  0.253129  0.256951  0.403178  0  .  1
   Sr  Sr7  1  0.735414  0.743140  0.346825  0  .  1
   Sr  Sr8  1  0.253532  0.253492  0.530424  0  .  1
   Sr  Sr9  1  0.759367  0.757776  0.465297  0  .  1
   Sr  Sr10  1  0.250000  0.250000  0.656250  0  .  1
   Sr  Sr11  1  0.246468  0.246508  0.782076  0  .  1
   Sr  Sr12  1  0.751578  0.751812  0.593111  0  .  1
   Sr  Sr13  1  0.748422  0.748188  0.719389  0  .  1
   Sr  Sr14  1  0.246871  0.243049  0.909322  0  .  1
   Sr  Sr15  1  0.740633  0.742224  0.847203  0  .  1
   Sr  Sr16  1  0.764586  0.756860  0.965675  0  .  1
   Fe  Fe17  1  0.973788  0.022276  0.997070  0  .  1
   Fe  Fe18  1  0.980531  0.021113  0.122094  0  .  1
   Fe  Fe19  1  0.519991  0.482215  0.064489  0  .  1
   Fe  Fe20  1  0.519469  0.478887  0.190406  0  .  1
   Fe  Fe21  1  0.980009  0.017785  0.248011  0  .  1
   Fe  Fe22  1  0.526212  0.477724  0.315430  0  .  1
   Fe  Fe23  1  0.005297  0.999939  0.375014  0  .  1
   Fe  Fe24  1  0.527167  0.522091  0.434609  0  .  1
   Fe  Fe25  1  0.981702  0.981823  0.501945  0  .  1
   Fe  Fe26  1  0.520871  0.520598  0.559492  0  .  1
   Fe  Fe27  1  0.980359  0.980539  0.627339  0  .  1
   Fe  Fe28  1  0.519641  0.519461  0.685161  0  .  1
   Fe  Fe29  1  0.979129  0.979402  0.753008  0  .  1
   Fe  Fe30  1  0.972833  0.977909  0.877891  0  .  1
   Fe  Fe31  1  0.518298  0.518177  0.810555  0  .  1
   Fe  Fe32  1  0.494703  0.500061  0.937486  0  .  1
   O  O33  1  0.251520  0.247769  0.094008  0  .  1
   O  O34  1  0.748252  0.252978  0.030815  0  .  1
   O  O35  1  0.248646  0.744339  0.094772  0  .  1
   O  O36  1  0.747034  0.250310  0.093875  0  .  1
   O  O37  1  0.248480  0.252231  0.218492  0  .  1
   O  O38  1  0.734072  0.758426  0.032012  0  .  1
   O  O39  1  0.750000  0.250000  0.156250  0  .  1
   O  O40  1  0.251354  0.755661  0.217728  0  .  1
   O  O41  1  0.752966  0.249690  0.218625  0  .  1
   O  O42  1  0.750000  0.750000  0.156250  0  .  1
   O  O43  1  0.236418  0.273314  0.342378  0  .  1
   O  O44  1  0.751748  0.247022  0.281685  0  .  1
   O  O45  1  0.238758  0.777943  0.337437  0  .  1
   O  O46  1  0.740647  0.258716  0.346527  0  .  1
   O  O47  1  0.765928  0.741574  0.280488  0  .  1
   O  O48  1  0.247988  0.726376  0.407812  0  .  1
   O  O49  1  0.715283  0.221601  0.412742  0  .  1
   O  O50  1  0.252115  0.752244  0.468448  0  .  1
   O  O51  1  0.750961  0.258393  0.469628  0  .  1
   O  O52  1  0.770918  0.740629  0.403641  0  .  1
   O  O53  1  0.248046  0.748391  0.531511  0  .  1
   O  O54  1  0.749291  0.243463  0.532344  0  .  1
   O  O55  1  0.249880  0.749006  0.593733  0  .  1
   O  O56  1  0.748797  0.250369  0.593916  0  .  1
   O  O57  1  0.751543  0.749998  0.531526  0  .  1
   O  O58  1  0.250000  0.750000  0.656250  0  .  1
   O  O59  1  0.750000  0.250000  0.656250  0  .  1
   O  O60  1  0.250120  0.750994  0.718767  0  .  1
   O  O61  1  0.251954  0.751609  0.780989  0  .  1
   O  O62  1  0.750000  0.750000  0.656250  0  .  1
   O  O63  1  0.751203  0.249631  0.718584  0  .  1
   O  O64  1  0.750709  0.256537  0.780156  0  .  1
   O  O65  1  0.247885  0.747756  0.844052  0  .  1
   O  O66  1  0.748457  0.750002  0.780974  0  .  1
   O  O67  1  0.252012  0.773624  0.904688  0  .  1
   O  O68  1  0.263582  0.226686  0.970122  0  .  1
   O  O69  1  0.749039  0.241607  0.842872  0  .  1
   O  O70  1  0.784717  0.278399  0.899758  0  .  1
   O  O71  1  0.261242  0.722057  0.975063  0  .  1
   O  O72  1  0.729082  0.759371  0.908859  0  .  1
   O  O73  1  0.759353  0.241284  0.965973  0  .  1
 
