#\#CIF1.1
##########################################################################
#               Crystallographic Information Format file 
#               Produced by PyCifRW module
# 
#  This is a CIF file.  CIF has been adopted by the International
#  Union of Crystallography as the standard for data archiving and 
#  transmission.
#
#  For information on this file format, follow the CIF links at
#  http://www.iucr.org
##########################################################################

data_Sr16Cu8O23
_symmetry_space_group_name_H-M          'P 1'
_cell_length_a                          6.87251104303
_cell_length_b                          10.2054807864
_cell_length_c                          12.4790058855
_cell_angle_alpha                       114.412462078
_cell_angle_beta                        101.813830881
_cell_angle_gamma                       105.435948676
_chemical_name_systematic               'Generated by pymatgen'
_symmetry_Int_Tables_number             1
_chemical_formula_structural            Sr16Cu8O23
_chemical_formula_sum                   'Sr16 Cu8 O23'
_cell_volume                            717.155603808
_cell_formula_units_Z                   1
loop_
  _symmetry_equiv_pos_site_id
  _symmetry_equiv_pos_as_xyz
   1  'x, y, z'
 
loop_
  _atom_site_type_symbol
  _atom_site_label
  _atom_site_symmetry_multiplicity
  _atom_site_fract_x
  _atom_site_fract_y
  _atom_site_fract_z
  _atom_site_attached_hydrogens
  _atom_site_B_iso_or_equiv
  _atom_site_occupancy
   Sr  Sr1  1  0.156878  0.446596  0.749783  0  .  1
   Sr  Sr2  1  0.593646  0.302328  0.750464  0  .  1
   Sr  Sr3  1  0.092112  0.792830  0.745990  0  .  1
   Sr  Sr4  1  0.782585  0.073365  0.500505  0  .  1
   Sr  Sr5  1  0.342415  0.051635  0.249495  0  .  1
   Sr  Sr6  1  0.719664  0.426382  0.498729  0  .  1
   Sr  Sr7  1  0.280002  0.572584  0.498068  0  .  1
   Sr  Sr8  1  0.641049  0.943490  0.746244  0  .  1
   Sr  Sr9  1  0.217959  0.927859  0.499702  0  .  1
   Sr  Sr10  1  0.907041  0.197141  0.250298  0  .  1
   Sr  Sr11  1  0.405336  0.698618  0.251271  0  .  1
   Sr  Sr12  1  0.483951  0.181510  0.003756  0  .  1
   Sr  Sr13  1  0.032888  0.332170  0.004010  0  .  1
   Sr  Sr14  1  0.844998  0.552416  0.251932  0  .  1
   Sr  Sr15  1  0.968122  0.678404  0.000217  0  .  1
   Sr  Sr16  1  0.531354  0.822672  0.999536  0  .  1
   Cu  Cu17  1  0.121318  0.121891  0.754524  0  .  1
   Cu  Cu18  1  0.625634  0.624805  0.750527  0  .  1
   Cu  Cu19  1  0.252683  0.251468  0.499188  0  .  1
   Cu  Cu20  1  0.750996  0.752162  0.501640  0  .  1
   Cu  Cu21  1  0.003682  0.003109  0.995476  0  .  1
   Cu  Cu22  1  0.374004  0.372838  0.248360  0  .  1
   Cu  Cu23  1  0.499366  0.500195  0.999473  0  .  1
   Cu  Cu24  1  0.872317  0.873532  0.250812  0  .  1
   O  O25  1  0.344167  0.044987  0.759593  0  .  1
   O  O26  1  0.893587  0.193890  0.759522  0  .  1
   O  O27  1  0.191793  0.191024  0.621065  0  .  1
   O  O28  1  0.562500  0.562500  0.875000  0  .  1
   O  O29  1  0.389050  0.700865  0.750009  0  .  1
   O  O30  1  0.857686  0.543679  0.749970  0  .  1
   O  O31  1  0.017877  0.328222  0.497159  0  .  1
   O  O32  1  0.486863  0.173496  0.498908  0  .  1
   O  O33  1  0.312709  0.311391  0.375286  0  .  1
   O  O34  1  0.689208  0.689875  0.627909  0  .  1
   O  O35  1  0.515427  0.830014  0.501136  0  .  1
   O  O36  1  0.984027  0.672406  0.499740  0  .  1
   O  O37  1  0.609573  0.294986  0.248864  0  .  1
   O  O38  1  0.140973  0.452594  0.250260  0  .  1
   O  O39  1  0.435792  0.435125  0.122091  0  .  1
   O  O40  1  0.812291  0.813609  0.374714  0  .  1
   O  O41  1  0.780833  0.080013  0.990407  0  .  1
   O  O42  1  0.107123  0.796778  0.252841  0  .  1
   O  O43  1  0.638137  0.951504  0.251092  0  .  1
   O  O44  1  0.267314  0.581321  0.000030  0  .  1
   O  O45  1  0.735950  0.424135  0.999991  0  .  1
   O  O46  1  0.933207  0.933976  0.128936  0  .  1
   O  O47  1  0.231413  0.931110  0.990478  0  .  1
 
