#\#CIF1.1
##########################################################################
#               Crystallographic Information Format file 
#               Produced by PyCifRW module
# 
#  This is a CIF file.  CIF has been adopted by the International
#  Union of Crystallography as the standard for data archiving and 
#  transmission.
#
#  For information on this file format, follow the CIF links at
#  http://www.iucr.org
##########################################################################

data_Sr16Mn8O29
_symmetry_space_group_name_H-M          'P 1'
_cell_length_a                          6.90344411786
_cell_length_b                          10.9801875607
_cell_length_c                          10.3899209326
_cell_angle_alpha                       89.9137542966
_cell_angle_beta                        75.9095394812
_cell_angle_gamma                       90.0378342811
_chemical_name_systematic               'Generated by pymatgen'
_symmetry_Int_Tables_number             1
_chemical_formula_structural            Sr16Mn8O29
_chemical_formula_sum                   'Sr16 Mn8 O29'
_cell_volume                            763.870369396
_cell_formula_units_Z                   1
loop_
  _symmetry_equiv_pos_site_id
  _symmetry_equiv_pos_as_xyz
   1  'x, y, z'
 
loop_
  _atom_site_type_symbol
  _atom_site_label
  _atom_site_symmetry_multiplicity
  _atom_site_fract_x
  _atom_site_fract_y
  _atom_site_fract_z
  _atom_site_attached_hydrogens
  _atom_site_B_iso_or_equiv
  _atom_site_occupancy
   Sr  Sr1  1  0.212262  0.999326  0.068689  0  .  1
   Sr  Sr2  1  0.229904  0.499704  0.079238  0  .  1
   Sr  Sr3  1  0.020958  0.253102  0.682713  0  .  1
   Sr  Sr4  1  0.040086  0.756981  0.667594  0  .  1
   Sr  Sr5  1  0.285230  0.992528  0.419417  0  .  1
   Sr  Sr6  1  0.287647  0.499163  0.429902  0  .  1
   Sr  Sr7  1  0.518651  0.242251  0.186246  0  .  1
   Sr  Sr8  1  0.538916  0.748617  0.175222  0  .  1
   Sr  Sr9  1  0.462828  0.254800  0.831161  0  .  1
   Sr  Sr10  1  0.481162  0.757462  0.815041  0  .  1
   Sr  Sr11  1  0.711240  0.501371  0.570427  0  .  1
   Sr  Sr12  1  0.729119  0.997021  0.568605  0  .  1
   Sr  Sr13  1  0.961033  0.241456  0.333637  0  .  1
   Sr  Sr14  1  0.965356  0.748088  0.318461  0  .  1
   Sr  Sr15  1  0.767920  0.504373  0.924063  0  .  1
   Sr  Sr16  1  0.788245  0.001813  0.928971  0  .  1
   Mn  Mn17  1  0.002716  0.748861  0.000109  0  .  1
   Mn  Mn18  1  0.245063  0.499800  0.750742  0  .  1
   Mn  Mn19  1  0.254057  0.999470  0.748583  0  .  1
   Mn  Mn20  1  0.498438  0.248442  0.500640  0  .  1
   Mn  Mn21  1  0.502259  0.751632  0.497904  0  .  1
   Mn  Mn22  1  0.747673  0.998603  0.250563  0  .  1
   Mn  Mn23  1  0.754632  0.499490  0.249535  0  .  1
   Mn  Mn24  1  0.997419  0.251979  0.000855  0  .  1
   O  O25  1  0.219435  0.257048  0.088176  0  .  1
   O  O26  1  0.005477  0.510690  0.679429  0  .  1
   O  O27  1  0.246482  0.739573  0.068826  0  .  1
   O  O28  1  0.030354  0.009627  0.661580  0  .  1
   O  O29  1  0.253779  0.238496  0.433904  0  .  1
   O  O30  1  0.263436  0.747727  0.418997  0  .  1
   O  O31  1  0.100327  0.397676  0.897708  0  .  1
   O  O32  1  0.134254  0.859291  0.869493  0  .  1
   O  O33  1  0.136504  0.129631  0.862753  0  .  1
   O  O34  1  0.510033  0.998244  0.168185  0  .  1
   O  O35  1  0.531922  0.489481  0.163004  0  .  1
   O  O36  1  0.367159  0.633668  0.634033  0  .  1
   O  O37  1  0.366518  0.361801  0.630756  0  .  1
   O  O38  1  0.389905  0.889400  0.613002  0  .  1
   O  O39  1  0.610106  0.113064  0.389740  0  .  1
   O  O40  1  0.621435  0.624373  0.380663  0  .  1
   O  O41  1  0.629033  0.866887  0.364924  0  .  1
   O  O42  1  0.639893  0.369607  0.360816  0  .  1
   O  O43  1  0.467776  0.510246  0.835157  0  .  1
   O  O44  1  0.498105  0.011450  0.819837  0  .  1
   O  O45  1  0.875736  0.880718  0.123797  0  .  1
   O  O46  1  0.862325  0.135115  0.134180  0  .  1
   O  O47  1  0.894214  0.607868  0.108257  0  .  1
   O  O48  1  0.722461  0.243087  0.590031  0  .  1
   O  O49  1  0.739642  0.752153  0.575225  0  .  1
   O  O50  1  0.983516  0.997324  0.327115  0  .  1
   O  O51  1  0.754442  0.261058  0.934362  0  .  1
   O  O52  1  0.997410  0.489190  0.320925  0  .  1
   O  O53  1  0.777902  0.742773  0.912300  0  .  1
 
