#\#CIF1.1
##########################################################################
#               Crystallographic Information Format file 
#               Produced by PyCifRW module
# 
#  This is a CIF file.  CIF has been adopted by the International
#  Union of Crystallography as the standard for data archiving and 
#  transmission.
#
#  For information on this file format, follow the CIF links at
#  http://www.iucr.org
##########################################################################

data_Sr16V8O31
_symmetry_space_group_name_H-M          'P 1'
_cell_length_a                          6.91823371466
_cell_length_b                          11.7838354085
_cell_length_c                          11.0627146731
_cell_angle_alpha                       62.654962187
_cell_angle_beta                        90.348944049
_cell_angle_gamma                       102.155395764
_chemical_name_systematic               'Generated by pymatgen'
_symmetry_Int_Tables_number             1
_chemical_formula_structural            Sr16V8O31
_chemical_formula_sum                   'Sr16 V8 O31'
_cell_volume                            778.853515097
_cell_formula_units_Z                   1
loop_
  _symmetry_equiv_pos_site_id
  _symmetry_equiv_pos_as_xyz
   1  'x, y, z'
 
loop_
  _atom_site_type_symbol
  _atom_site_label
  _atom_site_symmetry_multiplicity
  _atom_site_fract_x
  _atom_site_fract_y
  _atom_site_fract_z
  _atom_site_attached_hydrogens
  _atom_site_B_iso_or_equiv
  _atom_site_occupancy
   Sr  Sr1  1  0.277803  0.569437  0.969511  0  .  1
   Sr  Sr2  1  0.036464  0.328950  0.833881  0  .  1
   Sr  Sr3  1  0.472197  0.180563  0.905489  0  .  1
   Sr  Sr4  1  0.788294  0.081534  0.701877  0  .  1
   Sr  Sr5  1  0.234661  0.935508  0.776127  0  .  1
   Sr  Sr6  1  0.036376  0.326054  0.338260  0  .  1
   Sr  Sr7  1  0.713624  0.423946  0.536740  0  .  1
   Sr  Sr8  1  0.539971  0.825699  0.579711  0  .  1
   Sr  Sr9  1  0.972046  0.681432  0.652218  0  .  1
   Sr  Sr10  1  0.472373  0.182634  0.409866  0  .  1
   Sr  Sr11  1  0.277627  0.567366  0.465134  0  .  1
   Sr  Sr12  1  0.777954  0.068568  0.222782  0  .  1
   Sr  Sr13  1  0.210029  0.924301  0.295289  0  .  1
   Sr  Sr14  1  0.961706  0.668466  0.173123  0  .  1
   Sr  Sr15  1  0.515339  0.814492  0.098873  0  .  1
   Sr  Sr16  1  0.713536  0.421050  0.041119  0  .  1
   V  V17  1  0.247911  0.248957  0.624911  0  .  1
   V  V18  1  0.746556  0.743861  0.871212  0  .  1
   V  V19  1  0.004124  0.003187  0.499122  0  .  1
   V  V20  1  0.499211  0.498617  0.749368  0  .  1
   V  V21  1  0.502089  0.501043  0.250089  0  .  1
   V  V22  1  0.250789  0.251383  0.125632  0  .  1
   V  V23  1  0.745876  0.746813  0.375878  0  .  1
   V  V24  1  0.003444  0.006139  0.003788  0  .  1
   O  O25  1  0.119190  0.118750  0.812592  0  .  1
   O  O26  1  0.375000  0.375000  0.937500  0  .  1
   O  O27  1  0.759026  0.055218  0.953568  0  .  1
   O  O28  1  0.489702  0.168175  0.666420  0  .  1
   O  O29  1  0.007709  0.329085  0.585002  0  .  1
   O  O30  1  0.990974  0.694782  0.921432  0  .  1
   O  O31  1  0.133281  0.131201  0.559562  0  .  1
   O  O32  1  0.254480  0.576508  0.717540  0  .  1
   O  O33  1  0.548604  0.840548  0.848081  0  .  1
   O  O34  1  0.625214  0.622661  0.817152  0  .  1
   O  O35  1  0.732913  0.412858  0.796185  0  .  1
   O  O36  1  0.367467  0.367813  0.691707  0  .  1
   O  O37  1  0.375000  0.375000  0.437500  0  .  1
   O  O38  1  0.246241  0.920164  0.540229  0  .  1
   O  O39  1  0.881955  0.880043  0.697834  0  .  1
   O  O40  1  0.762942  0.083241  0.456377  0  .  1
   O  O41  1  0.614128  0.615453  0.573058  0  .  1
   O  O42  1  0.135872  0.134547  0.301942  0  .  1
   O  O43  1  0.260298  0.581825  0.208580  0  .  1
   O  O44  1  0.616719  0.618799  0.315438  0  .  1
   O  O45  1  0.382533  0.382187  0.183293  0  .  1
   O  O46  1  0.017087  0.337142  0.078815  0  .  1
   O  O47  1  0.495520  0.173492  0.157460  0  .  1
   O  O48  1  0.875000  0.875000  0.437500  0  .  1
   O  O49  1  0.503759  0.829836  0.334771  0  .  1
   O  O50  1  0.987058  0.666759  0.418623  0  .  1
   O  O51  1  0.124786  0.127339  0.057848  0  .  1
   O  O52  1  0.742291  0.420915  0.289998  0  .  1
   O  O53  1  0.201396  0.909452  0.026919  0  .  1
   O  O54  1  0.630810  0.631250  0.062408  0  .  1
   O  O55  1  0.868045  0.869957  0.177166  0  .  1
 
