#\#CIF1.1
##########################################################################
#               Crystallographic Information Format file 
#               Produced by PyCifRW module
# 
#  This is a CIF file.  CIF has been adopted by the International
#  Union of Crystallography as the standard for data archiving and 
#  transmission.
#
#  For information on this file format, follow the CIF links at
#  http://www.iucr.org
##########################################################################

data_Sr21Co14O43
_symmetry_space_group_name_H-M          'P 1'
_cell_length_a                          14.0303169502
_cell_length_b                          11.884436231
_cell_length_c                          11.884436231
_cell_angle_alpha                       117.072282301
_cell_angle_beta                        65.6130059988
_cell_angle_gamma                       65.6130059988
_chemical_name_systematic               'Generated by pymatgen'
_symmetry_Int_Tables_number             1
_chemical_formula_structural            Sr21Co14O43
_chemical_formula_sum                   'Sr21 Co14 O43'
_cell_volume                            1079.44291025
_cell_formula_units_Z                   1
loop_
  _symmetry_equiv_pos_site_id
  _symmetry_equiv_pos_as_xyz
   1  'x, y, z'
 
loop_
  _atom_site_type_symbol
  _atom_site_label
  _atom_site_symmetry_multiplicity
  _atom_site_fract_x
  _atom_site_fract_y
  _atom_site_fract_z
  _atom_site_attached_hydrogens
  _atom_site_B_iso_or_equiv
  _atom_site_occupancy
   Sr  Sr1  1  0.003016  0.503711  0.503711  0  .  1
   Sr  Sr2  1  0.999070  0.321400  0.683657  0  .  1
   Sr  Sr3  1  0.999070  0.683657  0.321400  0  .  1
   Sr  Sr4  1  0.142857  0.071429  0.071429  0  .  1
   Sr  Sr5  1  0.142857  0.256074  0.886783  0  .  1
   Sr  Sr6  1  0.142857  0.886783  0.256074  0  .  1
   Sr  Sr7  1  0.427661  0.398249  0.035973  0  .  1
   Sr  Sr8  1  0.286644  0.459200  0.821457  0  .  1
   Sr  Sr9  1  0.427661  0.035973  0.398249  0  .  1
   Sr  Sr10  1  0.419698  0.227756  0.227756  0  .  1
   Sr  Sr11  1  0.282699  0.639146  0.639146  0  .  1
   Sr  Sr12  1  0.286644  0.821457  0.459200  0  .  1
   Sr  Sr13  1  0.714100  0.538343  0.173662  0  .  1
   Sr  Sr14  1  0.714100  0.173662  0.538343  0  .  1
   Sr  Sr15  1  0.571614  0.969195  0.604514  0  .  1
   Sr  Sr16  1  0.573929  0.785339  0.785339  0  .  1
   Sr  Sr17  1  0.571614  0.604514  0.969195  0  .  1
   Sr  Sr18  1  0.711785  0.357518  0.357518  0  .  1
   Sr  Sr19  1  0.858053  0.744609  0.106884  0  .  1
   Sr  Sr20  1  0.858053  0.106884  0.744609  0  .  1
   Sr  Sr21  1  0.866016  0.915101  0.915101  0  .  1
   Co  Co22  1  0.998428  0.105216  0.900780  0  .  1
   Co  Co23  1  0.998428  0.900780  0.105216  0  .  1
   Co  Co24  1  0.142857  0.666494  0.476364  0  .  1
   Co  Co25  1  0.287286  0.242077  0.037641  0  .  1
   Co  Co26  1  0.287286  0.037641  0.242077  0  .  1
   Co  Co27  1  0.142857  0.476364  0.666494  0  .  1
   Co  Co28  1  0.574146  0.384254  0.180276  0  .  1
   Co  Co29  1  0.429981  0.811341  0.608020  0  .  1
   Co  Co30  1  0.574146  0.180276  0.384254  0  .  1
   Co  Co31  1  0.429981  0.608020  0.811341  0  .  1
   Co  Co32  1  0.711569  0.962582  0.758603  0  .  1
   Co  Co33  1  0.711569  0.758603  0.962582  0  .  1
   Co  Co34  1  0.855733  0.331516  0.534837  0  .  1
   Co  Co35  1  0.855733  0.534837  0.331516  0  .  1
   O  O36  1  0.058850  0.207414  0.373982  0  .  1
   O  O37  1  0.058850  0.373982  0.207414  0  .  1
   O  O38  1  0.000610  0.201804  0.806444  0  .  1
   O  O39  1  0.000610  0.806444  0.201804  0  .  1
   O  O40  1  0.219419  0.428129  0.250799  0  .  1
   O  O41  1  0.066295  0.714728  0.892058  0  .  1
   O  O42  1  0.066295  0.892058  0.714728  0  .  1
   O  O43  1  0.142857  0.380188  0.762670  0  .  1
   O  O44  1  0.142857  0.762670  0.380188  0  .  1
   O  O45  1  0.219419  0.250799  0.428129  0  .  1
   O  O46  1  0.142857  0.571429  0.571429  0  .  1
   O  O47  1  0.355659  0.024417  0.856136  0  .  1
   O  O48  1  0.371095  0.509038  0.330966  0  .  1
   O  O49  1  0.371095  0.330966  0.509038  0  .  1
   O  O50  1  0.226865  0.935443  0.768875  0  .  1
   O  O51  1  0.285104  0.336413  0.941053  0  .  1
   O  O52  1  0.226865  0.768875  0.935443  0  .  1
   O  O53  1  0.355659  0.856136  0.024417  0  .  1
   O  O54  1  0.285104  0.941053  0.336413  0  .  1
   O  O55  1  0.502397  0.413475  0.584376  0  .  1
   O  O56  1  0.502397  0.584376  0.413475  0  .  1
   O  O57  1  0.510492  0.909425  0.078385  0  .  1
   O  O58  1  0.576323  0.085124  0.479915  0  .  1
   O  O59  1  0.428839  0.915267  0.522629  0  .  1
   O  O60  1  0.510492  0.078385  0.909425  0  .  1
   O  O61  1  0.576323  0.479915  0.085124  0  .  1
   O  O62  1  0.428839  0.522629  0.915267  0  .  1
   O  O63  1  0.642857  0.985872  0.156985  0  .  1
   O  O64  1  0.709391  0.662941  0.057733  0  .  1
   O  O65  1  0.642857  0.156985  0.985872  0  .  1
   O  O66  1  0.642857  0.487438  0.655419  0  .  1
   O  O67  1  0.775223  0.064472  0.233432  0  .  1
   O  O68  1  0.775223  0.233432  0.064472  0  .  1
   O  O69  1  0.642857  0.655419  0.487438  0  .  1
   O  O70  1  0.709391  0.057733  0.662941  0  .  1
   O  O71  1  0.783317  0.729382  0.558481  0  .  1
   O  O72  1  0.783317  0.558481  0.729382  0  .  1
   O  O73  1  0.856876  0.227591  0.620228  0  .  1
   O  O74  1  0.930055  0.286721  0.118440  0  .  1
   O  O75  1  0.856876  0.620228  0.227591  0  .  1
   O  O76  1  0.930055  0.118440  0.286721  0  .  1
   O  O77  1  0.914620  0.811891  0.633819  0  .  1
   O  O78  1  0.914620  0.633819  0.811891  0  .  1
 
