#\#CIF1.1
##########################################################################
#               Crystallographic Information Format file 
#               Produced by PyCifRW module
# 
#  This is a CIF file.  CIF has been adopted by the International
#  Union of Crystallography as the standard for data archiving and 
#  transmission.
#
#  For information on this file format, follow the CIF links at
#  http://www.iucr.org
##########################################################################

data_Sr2CrO4
_symmetry_space_group_name_H-M          'P 1'
_cell_length_a                          5.90983461
_cell_length_b                          10.12194225
_cell_length_c                          14.38378597
_cell_angle_alpha                       90.0
_cell_angle_beta                        90.0
_cell_angle_gamma                       90.0
_chemical_name_systematic               'Generated by pymatgen'
_symmetry_Int_Tables_number             1
_chemical_formula_structural            Sr2CrO4
_chemical_formula_sum                   'Sr16 Cr8 O32'
_cell_volume                            860.423759529
_cell_formula_units_Z                   8
loop_
  _symmetry_equiv_pos_site_id
  _symmetry_equiv_pos_as_xyz
   1  'x, y, z'
 
loop_
  _atom_site_type_symbol
  _atom_site_label
  _atom_site_symmetry_multiplicity
  _atom_site_fract_x
  _atom_site_fract_y
  _atom_site_fract_z
  _atom_site_attached_hydrogens
  _atom_site_B_iso_or_equiv
  _atom_site_occupancy
   O  O1  1  0.053816  0.508339  0.486905  0  .  1
   O  O2  1  0.946184  0.008339  0.513095  0  .  1
   O  O3  1  0.446184  0.508339  0.986905  0  .  1
   O  O4  1  0.553816  0.008339  0.013095  0  .  1
   O  O5  1  0.529905  0.558314  0.528672  0  .  1
   O  O6  1  0.470095  0.058314  0.471328  0  .  1
   O  O7  1  0.970095  0.558314  0.028672  0  .  1
   O  O8  1  0.029905  0.058314  0.971328  0  .  1
   O  O9  1  0.945615  0.846529  0.202192  0  .  1
   O  O10  1  0.054385  0.346529  0.797808  0  .  1
   O  O11  1  0.554385  0.846529  0.702192  0  .  1
   O  O12  1  0.445615  0.346529  0.297808  0  .  1
   O  O13  1  0.283240  0.771469  0.045180  0  .  1
   O  O14  1  0.716760  0.271469  0.954820  0  .  1
   O  O15  1  0.216760  0.771469  0.545180  0  .  1
   O  O16  1  0.783240  0.271469  0.454820  0  .  1
   O  O17  1  0.633097  0.643268  0.198415  0  .  1
   O  O18  1  0.366903  0.143268  0.801585  0  .  1
   O  O19  1  0.866903  0.643268  0.698415  0  .  1
   O  O20  1  0.133097  0.143268  0.301585  0  .  1
   O  O21  1  0.358080  0.678466  0.360996  0  .  1
   O  O22  1  0.641920  0.178466  0.639004  0  .  1
   O  O23  1  0.141920  0.678466  0.860996  0  .  1
   O  O24  1  0.858080  0.178466  0.139004  0  .  1
   O  O25  1  0.340843  0.253184  0.123933  0  .  1
   O  O26  1  0.659157  0.753184  0.876067  0  .  1
   O  O27  1  0.159157  0.253184  0.623933  0  .  1
   O  O28  1  0.840843  0.753184  0.376067  0  .  1
   O  O29  1  0.999213  0.423323  0.243390  0  .  1
   O  O30  1  0.000787  0.923323  0.756610  0  .  1
   O  O31  1  0.500787  0.423323  0.743390  0  .  1
   O  O32  1  0.499213  0.923323  0.256610  0  .  1
   Cr  Cr33  1  0.196849  0.288295  0.230687  0  .  1
   Cr  Cr34  1  0.803151  0.788295  0.769313  0  .  1
   Cr  Cr35  1  0.303151  0.288295  0.730687  0  .  1
   Cr  Cr36  1  0.696849  0.788295  0.269313  0  .  1
   Cr  Cr37  1  0.276208  0.626248  0.475500  0  .  1
   Cr  Cr38  1  0.723792  0.126248  0.524500  0  .  1
   Cr  Cr39  1  0.223792  0.626248  0.975500  0  .  1
   Cr  Cr40  1  0.776208  0.126248  0.024500  0  .  1
   Sr  Sr41  1  0.723716  0.775675  0.046278  0  .  1
   Sr  Sr42  1  0.276284  0.275675  0.953722  0  .  1
   Sr  Sr43  1  0.776284  0.775675  0.546278  0  .  1
   Sr  Sr44  1  0.223716  0.275675  0.453722  0  .  1
   Sr  Sr45  1  0.693518  0.414028  0.118780  0  .  1
   Sr  Sr46  1  0.306482  0.914028  0.881220  0  .  1
   Sr  Sr47  1  0.806482  0.414028  0.618780  0  .  1
   Sr  Sr48  1  0.193518  0.914028  0.381220  0  .  1
   Sr  Sr49  1  0.692359  0.140422  0.295196  0  .  1
   Sr  Sr50  1  0.307641  0.640422  0.704804  0  .  1
   Sr  Sr51  1  0.807641  0.140422  0.795196  0  .  1
   Sr  Sr52  1  0.192359  0.640422  0.204804  0  .  1
   Sr  Sr53  1  0.722783  0.502740  0.369554  0  .  1
   Sr  Sr54  1  0.277217  0.002740  0.630446  0  .  1
   Sr  Sr55  1  0.777217  0.502740  0.869554  0  .  1
   Sr  Sr56  1  0.222783  0.002740  0.130446  0  .  1
 
