#\#CIF1.1
##########################################################################
#               Crystallographic Information Format file 
#               Produced by PyCifRW module
# 
#  This is a CIF file.  CIF has been adopted by the International
#  Union of Crystallography as the standard for data archiving and 
#  transmission.
#
#  For information on this file format, follow the CIF links at
#  http://www.iucr.org
##########################################################################

data_Sr2CuO4
_symmetry_space_group_name_H-M          'P 1'
_cell_length_a                          6.80043867088
_cell_length_b                          6.80043867088
_cell_length_c                          6.80043867088
_cell_angle_alpha                       146.500079128
_cell_angle_beta                        146.500079128
_cell_angle_gamma                       48.1045713295
_chemical_name_systematic               'Generated by pymatgen'
_symmetry_Int_Tables_number             1
_chemical_formula_structural            Sr2CuO4
_chemical_formula_sum                   'Sr2 Cu1 O4'
_cell_volume                            95.4111174971
_cell_formula_units_Z                   1
loop_
  _symmetry_equiv_pos_site_id
  _symmetry_equiv_pos_as_xyz
   1  'x, y, z'
 
loop_
  _atom_site_type_symbol
  _atom_site_label
  _atom_site_symmetry_multiplicity
  _atom_site_fract_x
  _atom_site_fract_y
  _atom_site_fract_z
  _atom_site_attached_hydrogens
  _atom_site_B_iso_or_equiv
  _atom_site_occupancy
   Sr  Sr1  1  0.359439  0.359439  0.000000  0  .  1
   Sr  Sr2  1  0.640561  0.640561  0.000000  0  .  1
   Cu  Cu3  1  0.000000  0.000000  0.000000  0  .  1
   O  O4  1  0.500000  0.000000  0.500000  0  .  1
   O  O5  1  0.157683  0.157683  0.000000  0  .  1
   O  O6  1  0.842317  0.842317  0.000000  0  .  1
   O  O7  1  0.000000  0.500000  0.500000  0  .  1
 
