#\#CIF1.1
##########################################################################
#               Crystallographic Information Format file 
#               Produced by PyCifRW module
# 
#  This is a CIF file.  CIF has been adopted by the International
#  Union of Crystallography as the standard for data archiving and 
#  transmission.
#
#  For information on this file format, follow the CIF links at
#  http://www.iucr.org
##########################################################################

data_Sr2Cu3O5
_symmetry_space_group_name_H-M          'P 1'
_cell_length_a                          3.51031586
_cell_length_b                          3.94489423963
_cell_length_c                          9.9903160717
_cell_angle_alpha                       101.387061401
_cell_angle_beta                        90.0
_cell_angle_gamma                       90.0
_chemical_name_systematic               'Generated by pymatgen'
_symmetry_Int_Tables_number             1
_chemical_formula_structural            Sr2Cu3O5
_chemical_formula_sum                   'Sr2 Cu3 O5'
_cell_volume                            135.620950859
_cell_formula_units_Z                   1
loop_
  _symmetry_equiv_pos_site_id
  _symmetry_equiv_pos_as_xyz
   1  'x, y, z'
 
loop_
  _atom_site_type_symbol
  _atom_site_label
  _atom_site_symmetry_multiplicity
  _atom_site_fract_x
  _atom_site_fract_y
  _atom_site_fract_z
  _atom_site_attached_hydrogens
  _atom_site_B_iso_or_equiv
  _atom_site_occupancy
   Cu  Cu1  1  0.000000  0.199047  0.398094  0  .  1
   Sr  Sr2  1  0.500000  0.600977  0.201955  0  .  1
   O  O3  1  0.000000  0.703114  0.406228  0  .  1
   Sr  Sr4  1  0.500000  0.399018  0.798036  0  .  1
   O  O5  1  0.000000  0.296856  0.593711  0  .  1
   Cu  Cu6  1  0.000000  0.800953  0.601906  0  .  1
   Cu  Cu7  1  0.000000  1.000009  1.000017  0  .  1
   O  O8  1  0.000000  0.898367  0.796735  0  .  1
   O  O9  1  0.000000  0.101660  0.203319  0  .  1
   O  O10  1  0.000000  0.500000  1.000000  0  .  1
 
