#\#CIF1.1
##########################################################################
#               Crystallographic Information Format file 
#               Produced by PyCifRW module
# 
#  This is a CIF file.  CIF has been adopted by the International
#  Union of Crystallography as the standard for data archiving and 
#  transmission.
#
#  For information on this file format, follow the CIF links at
#  http://www.iucr.org
##########################################################################

data_Sr2Fe23O38
_symmetry_space_group_name_H-M          'P 1'
_cell_length_a                          5.95558151107
_cell_length_b                          5.95753437304
_cell_length_c                          23.2652217393
_cell_angle_alpha                       89.8570935272
_cell_angle_beta                        90.2680823473
_cell_angle_gamma                       120.244476025
_chemical_name_systematic               'Generated by pymatgen'
_symmetry_Int_Tables_number             1
_chemical_formula_structural            Sr2Fe23O38
_chemical_formula_sum                   'Sr2 Fe23 O38'
_cell_volume                            713.097038171
_cell_formula_units_Z                   1
loop_
  _symmetry_equiv_pos_site_id
  _symmetry_equiv_pos_as_xyz
   1  'x, y, z'
 
loop_
  _atom_site_type_symbol
  _atom_site_label
  _atom_site_symmetry_multiplicity
  _atom_site_fract_x
  _atom_site_fract_y
  _atom_site_fract_z
  _atom_site_attached_hydrogens
  _atom_site_B_iso_or_equiv
  _atom_site_occupancy
   Sr  Sr1  1  0.331929  0.662943  0.748748  0  .  1
   Sr  Sr2  1  0.657819  0.326747  0.250434  0  .  1
   Fe  Fe3  1  0.168388  0.832815  0.611910  0  .  1
   Fe  Fe4  1  0.167567  0.832386  0.891334  0  .  1
   Fe  Fe5  1  0.328117  0.667767  0.194606  0  .  1
   Fe  Fe6  1  0.333612  0.667969  0.026759  0  .  1
   Fe  Fe7  1  0.169422  0.336814  0.607228  0  .  1
   Fe  Fe8  1  0.330761  0.665028  0.309563  0  .  1
   Fe  Fe9  1  0.002702  0.001091  0.999715  0  .  1
   Fe  Fe10  1  0.999828  0.001397  0.501300  0  .  1
   Fe  Fe11  1  -0.001261  0.001374  0.750995  0  .  1
   Fe  Fe12  1  0.336054  0.668218  0.474961  0  .  1
   Fe  Fe13  1  0.166477  0.335316  0.891455  0  .  1
   Fe  Fe14  1  0.663157  0.830930  0.890527  0  .  1
   Fe  Fe15  1  0.664732  0.831883  0.607111  0  .  1
   Fe  Fe16  1  0.331833  0.166765  0.109578  0  .  1
   Fe  Fe17  1  0.335816  0.163239  0.393918  0  .  1
   Fe  Fe18  1  0.668143  0.333509  0.689334  0  .  1
   Fe  Fe19  1  0.669862  0.333671  0.973596  0  .  1
   Fe  Fe20  1  0.665332  0.333972  0.528738  0  .  1
   Fe  Fe21  1  0.664450  0.332573  0.808473  0  .  1
   Fe  Fe22  1  0.830214  0.665242  0.390593  0  .  1
   Fe  Fe23  1  0.830776  0.667148  0.108511  0  .  1
   Fe  Fe24  1  0.831830  0.164185  0.108554  0  .  1
   Fe  Fe25  1  0.834616  0.169363  0.390725  0  .  1
   O  O26  1  0.156046  0.847223  0.050624  0  .  1
   O  O27  1  0.160330  0.849157  0.447435  0  .  1
   O  O28  1  0.005685  0.503104  0.849947  0  .  1
   O  O29  1  0.018060  0.499661  0.651163  0  .  1
   O  O30  1  0.195612  0.810327  0.246112  0  .  1
   O  O31  1  0.334866  0.667979  0.943824  0  .  1
   O  O32  1  0.336485  0.665022  0.557849  0  .  1
   O  O33  1  0.156787  0.309109  0.050299  0  .  1
   O  O34  1  0.001712  0.001079  0.146309  0  .  1
   O  O35  1  0.011772  0.007635  0.353176  0  .  1
   O  O36  1  0.996420  0.004905  0.650371  0  .  1
   O  O37  1  0.148777  0.315071  0.449597  0  .  1
   O  O38  1  -0.000666  -0.000615  0.846832  0  .  1
   O  O39  1  0.196938  0.391462  0.248086  0  .  1
   O  O40  1  0.502723  0.984593  0.650739  0  .  1
   O  O41  1  0.492145  0.987751  0.848318  0  .  1
   O  O42  1  0.606801  0.801834  0.250660  0  .  1
   O  O43  1  0.309585  0.161033  0.554926  0  .  1
   O  O44  1  0.307693  0.153685  0.948577  0  .  1
   O  O45  1  0.493325  0.508961  0.648795  0  .  1
   O  O46  1  0.493540  0.505190  0.848028  0  .  1
   O  O47  1  0.497556  0.483393  0.349449  0  .  1
   O  O48  1  0.500555  0.501109  0.150953  0  .  1
   O  O49  1  0.696774  0.847970  0.050600  0  .  1
   O  O50  1  0.687313  0.842221  0.447744  0  .  1
   O  O51  1  0.365706  0.183132  0.747744  0  .  1
   O  O52  1  0.501356  0.998876  0.151080  0  .  1
   O  O53  1  0.507177  0.001718  0.347775  0  .  1
   O  O54  1  0.666985  0.334881  0.444944  0  .  1
   O  O55  1  0.665009  0.331690  0.056675  0  .  1
   O  O56  1  0.818046  0.634602  0.748430  0  .  1
   O  O57  1  0.846424  0.694866  0.948567  0  .  1
   O  O58  1  0.841015  0.690857  0.554727  0  .  1
   O  O59  1  0.817771  0.184925  0.750429  0  .  1
   O  O60  1  0.996154  0.497405  0.151085  0  .  1
   O  O61  1  0.994739  0.499274  0.347672  0  .  1
   O  O62  1  0.846592  0.151475  0.948633  0  .  1
   O  O63  1  0.844027  0.155503  0.555692  0  .  1
 
