#\#CIF1.1
##########################################################################
#               Crystallographic Information Format file 
#               Produced by PyCifRW module
# 
#  This is a CIF file.  CIF has been adopted by the International
#  Union of Crystallography as the standard for data archiving and 
#  transmission.
#
#  For information on this file format, follow the CIF links at
#  http://www.iucr.org
##########################################################################

data_Sr2SnO4
_symmetry_space_group_name_H-M          'P 1'
_cell_length_a                          5.79993358566
_cell_length_b                          5.91903626
_cell_length_c                          6.92674962146
_cell_angle_alpha                       90.0
_cell_angle_beta                        114.750142224
_cell_angle_gamma                       90.0
_chemical_name_systematic               'Generated by pymatgen'
_symmetry_Int_Tables_number             1
_chemical_formula_structural            Sr2SnO4
_chemical_formula_sum                   'Sr4 Sn2 O8'
_cell_volume                            215.952052701
_cell_formula_units_Z                   2
loop_
  _symmetry_equiv_pos_site_id
  _symmetry_equiv_pos_as_xyz
   1  'x, y, z'
 
loop_
  _atom_site_type_symbol
  _atom_site_label
  _atom_site_symmetry_multiplicity
  _atom_site_fract_x
  _atom_site_fract_y
  _atom_site_fract_z
  _atom_site_attached_hydrogens
  _atom_site_B_iso_or_equiv
  _atom_site_occupancy
   O  O1  1  0.336821  0.557197  0.673642  0  .  1
   O  O2  1  0.663179  0.442803  0.326358  0  .  1
   O  O3  1  0.163179  0.057197  0.326358  0  .  1
   O  O4  1  0.836821  0.942803  0.673642  0  .  1
   O  O5  1  0.228352  0.250000  0.956704  0  .  1
   O  O6  1  0.271648  0.750000  0.043296  0  .  1
   O  O7  1  0.728352  0.250000  0.956704  0  .  1
   O  O8  1  0.771648  0.750000  0.043296  0  .  1
   Sr  Sr9  1  0.147216  0.485404  0.294432  0  .  1
   Sr  Sr10  1  0.852784  0.514596  0.705568  0  .  1
   Sr  Sr11  1  0.352784  0.985404  0.705568  0  .  1
   Sr  Sr12  1  0.647216  0.014596  0.294432  0  .  1
   Sn  Sn13  1  0.500000  0.500000  0.000000  0  .  1
   Sn  Sn14  1  0.000000  0.000000  0.000000  0  .  1
 
