#\#CIF1.1
##########################################################################
#               Crystallographic Information Format file 
#               Produced by PyCifRW module
# 
#  This is a CIF file.  CIF has been adopted by the International
#  Union of Crystallography as the standard for data archiving and 
#  transmission.
#
#  For information on this file format, follow the CIF links at
#  http://www.iucr.org
##########################################################################

data_Sr2V2O7
_symmetry_space_group_name_H-M          'P 1'
_cell_length_a                          7.17932958195
_cell_length_b                          7.2379247852
_cell_length_c                          13.1676149301
_cell_angle_alpha                       98.8755861078
_cell_angle_beta                        93.5781977508
_cell_angle_gamma                       90.8919609942
_chemical_name_systematic               'Generated by pymatgen'
_symmetry_Int_Tables_number             1
_chemical_formula_structural            Sr2V2O7
_chemical_formula_sum                   'Sr8 V8 O28'
_cell_volume                            674.503233052
_cell_formula_units_Z                   4
loop_
  _symmetry_equiv_pos_site_id
  _symmetry_equiv_pos_as_xyz
   1  'x, y, z'
 
loop_
  _atom_site_type_symbol
  _atom_site_label
  _atom_site_symmetry_multiplicity
  _atom_site_fract_x
  _atom_site_fract_y
  _atom_site_fract_z
  _atom_site_attached_hydrogens
  _atom_site_B_iso_or_equiv
  _atom_site_occupancy
   O  O1  1  0.692149  0.397826  0.544374  0  .  1
   O  O2  1  0.307852  0.602173  0.455626  0  .  1
   O  O3  1  0.932585  0.571135  0.712709  0  .  1
   O  O4  1  0.067415  0.428866  0.287292  0  .  1
   O  O5  1  0.696609  0.065954  0.968232  0  .  1
   O  O6  1  0.303391  0.934046  0.031768  0  .  1
   O  O7  1  0.465459  0.036820  0.787384  0  .  1
   O  O8  1  0.534541  0.963179  0.212616  0  .  1
   O  O9  1  0.991028  0.672292  0.952301  0  .  1
   O  O10  1  0.008972  0.327709  0.047699  0  .  1
   O  O11  1  0.609522  0.746165  0.662086  0  .  1
   O  O12  1  0.390478  0.253834  0.337914  0  .  1
   O  O13  1  0.302560  0.363524  0.663063  0  .  1
   O  O14  1  0.697440  0.636476  0.336937  0  .  1
   O  O15  1  0.053468  0.978403  0.852793  0  .  1
   O  O16  1  0.946532  0.021596  0.147206  0  .  1
   O  O17  1  0.009069  0.866755  0.339154  0  .  1
   O  O18  1  0.990931  0.133246  0.660846  0  .  1
   O  O19  1  0.301130  0.652402  0.170960  0  .  1
   O  O20  1  0.698869  0.347599  0.829040  0  .  1
   O  O21  1  0.926473  0.722981  0.529219  0  .  1
   O  O22  1  0.073527  0.277018  0.470780  0  .  1
   O  O23  1  0.309981  0.006794  0.554970  0  .  1
   O  O24  1  0.618150  0.683051  0.051116  0  .  1
   O  O25  1  0.696108  0.320299  0.160633  0  .  1
   O  O26  1  0.303893  0.679701  0.839367  0  .  1
   O  O27  1  0.690019  0.993205  0.445030  0  .  1
   O  O28  1  0.381850  0.316950  0.948884  0  .  1
   V  V29  1  0.834701  0.805552  0.410854  0  .  1
   V  V30  1  0.165299  0.194448  0.589146  0  .  1
   V  V31  1  0.840523  0.179628  0.083016  0  .  1
   V  V32  1  0.159477  0.820372  0.916984  0  .  1
   V  V33  1  0.556370  0.200848  0.885301  0  .  1
   V  V34  1  0.443629  0.799153  0.114699  0  .  1
   V  V35  1  0.782722  0.603871  0.610995  0  .  1
   V  V36  1  0.217278  0.396129  0.389005  0  .  1
   Sr  Sr37  1  0.746631  0.272997  0.348595  0  .  1
   Sr  Sr38  1  0.253370  0.727003  0.651405  0  .  1
   Sr  Sr39  1  0.073287  0.344141  0.845244  0  .  1
   Sr  Sr40  1  0.926713  0.655859  0.154756  0  .  1
   Sr  Sr41  1  0.670768  0.715508  0.863545  0  .  1
   Sr  Sr42  1  0.329232  0.284492  0.136455  0  .  1
   Sr  Sr43  1  0.635590  0.127177  0.636368  0  .  1
   Sr  Sr44  1  0.364410  0.872823  0.363632  0  .  1
 
