#\#CIF1.1
##########################################################################
#               Crystallographic Information Format file 
#               Produced by PyCifRW module
# 
#  This is a CIF file.  CIF has been adopted by the International
#  Union of Crystallography as the standard for data archiving and 
#  transmission.
#
#  For information on this file format, follow the CIF links at
#  http://www.iucr.org
##########################################################################

data_Sr3Fe2O7
_symmetry_space_group_name_H-M          'P 1'
_cell_length_a                          3.90813784578
_cell_length_b                          3.90813784486
_cell_length_c                          10.5430043512
_cell_angle_alpha                       100.681113269
_cell_angle_beta                        100.681113288
_cell_angle_gamma                       90.0000000886
_chemical_name_systematic               'Generated by pymatgen'
_symmetry_Int_Tables_number             1
_chemical_formula_structural            Sr3Fe2O7
_chemical_formula_sum                   'Sr3 Fe2 O7'
_cell_volume                            155.39893576
_cell_formula_units_Z                   1
loop_
  _symmetry_equiv_pos_site_id
  _symmetry_equiv_pos_as_xyz
   1  'x, y, z'
 
loop_
  _atom_site_type_symbol
  _atom_site_label
  _atom_site_symmetry_multiplicity
  _atom_site_fract_x
  _atom_site_fract_y
  _atom_site_fract_z
  _atom_site_attached_hydrogens
  _atom_site_B_iso_or_equiv
  _atom_site_occupancy
   O  O1  1  0.000000  0.000000  0.000000  0  .  1
   O  O2  1  0.806182  0.806183  0.612365  0  .  1
   O  O3  1  0.193816  0.193818  0.387635  0  .  1
   O  O4  1  0.904423  0.404423  0.808847  0  .  1
   O  O5  1  0.404424  0.904424  0.808847  0  .  1
   O  O6  1  0.595577  0.095576  0.191153  0  .  1
   O  O7  1  0.095578  0.595578  0.191153  0  .  1
   Fe  Fe8  1  0.902720  0.902720  0.805439  0  .  1
   Fe  Fe9  1  0.097281  0.097281  0.194561  0  .  1
   Sr  Sr10  1  0.683001  0.682999  0.366000  0  .  1
   Sr  Sr11  1  0.317000  0.316999  0.634001  0  .  1
   Sr  Sr12  1  0.500000  0.500001  0.000000  0  .  1
 
