#\#CIF1.1
##########################################################################
#               Crystallographic Information Format file 
#               Produced by PyCifRW module
# 
#  This is a CIF file.  CIF has been adopted by the International
#  Union of Crystallography as the standard for data archiving and 
#  transmission.
#
#  For information on this file format, follow the CIF links at
#  http://www.iucr.org
##########################################################################

data_Sr3V2O7
_symmetry_space_group_name_H-M          'P 1'
_cell_length_a                          3.977366537
_cell_length_b                          3.97736653918
_cell_length_c                          10.3534573726
_cell_angle_alpha                       101.074145798
_cell_angle_beta                        101.074145792
_cell_angle_gamma                       90.0000000487
_chemical_name_systematic               'Generated by pymatgen'
_symmetry_Int_Tables_number             1
_chemical_formula_structural            Sr3V2O7
_chemical_formula_sum                   'Sr3 V2 O7'
_cell_volume                            157.627375911
_cell_formula_units_Z                   1
loop_
  _symmetry_equiv_pos_site_id
  _symmetry_equiv_pos_as_xyz
   1  'x, y, z'
 
loop_
  _atom_site_type_symbol
  _atom_site_label
  _atom_site_symmetry_multiplicity
  _atom_site_fract_x
  _atom_site_fract_y
  _atom_site_fract_z
  _atom_site_attached_hydrogens
  _atom_site_B_iso_or_equiv
  _atom_site_occupancy
   O  O1  1  0.904374  0.404375  0.808749  0  .  1
   O  O2  1  0.404375  0.904373  0.808748  0  .  1
   O  O3  1  0.095625  0.595625  0.191251  0  .  1
   O  O4  1  0.595626  0.095627  0.191251  0  .  1
   O  O5  1  0.807472  0.807472  0.614945  0  .  1
   O  O6  1  0.000000  0.000000  0.000000  0  .  1
   O  O7  1  0.192527  0.192528  0.385054  0  .  1
   V  V8  1  0.902266  0.902269  0.804534  0  .  1
   V  V9  1  0.097733  0.097732  0.195466  0  .  1
   Sr  Sr10  1  0.680430  0.680431  0.360860  0  .  1
   Sr  Sr11  1  0.319569  0.319569  0.639140  0  .  1
   Sr  Sr12  1  0.499999  0.500001  1.000000  0  .  1
 
