#\#CIF1.1
##########################################################################
#               Crystallographic Information Format file 
#               Produced by PyCifRW module
# 
#  This is a CIF file.  CIF has been adopted by the International
#  Union of Crystallography as the standard for data archiving and 
#  transmission.
#
#  For information on this file format, follow the CIF links at
#  http://www.iucr.org
##########################################################################

data_Sr5Mn5O13
_symmetry_space_group_name_H-M          'P 1'
_cell_length_a                          3.87884928
_cell_length_b                          8.77507118
_cell_length_c                          8.77507118
_cell_angle_alpha                       90.0
_cell_angle_beta                        90.0
_cell_angle_gamma                       90.0
_chemical_name_systematic               'Generated by pymatgen'
_symmetry_Int_Tables_number             1
_chemical_formula_structural            Sr5Mn5O13
_chemical_formula_sum                   'Sr5 Mn5 O13'
_cell_volume                            298.678664354
_cell_formula_units_Z                   1
loop_
  _symmetry_equiv_pos_site_id
  _symmetry_equiv_pos_as_xyz
   1  'x, y, z'
 
loop_
  _atom_site_type_symbol
  _atom_site_label
  _atom_site_symmetry_multiplicity
  _atom_site_fract_x
  _atom_site_fract_y
  _atom_site_fract_z
  _atom_site_attached_hydrogens
  _atom_site_B_iso_or_equiv
  _atom_site_occupancy
   Sr  Sr1  1  0.500000  0.282088  0.111570  0  .  1
   Sr  Sr2  1  0.500000  0.888430  0.282088  0  .  1
   Sr  Sr3  1  0.500000  0.111570  0.717912  0  .  1
   Sr  Sr4  1  0.500000  0.717912  0.888430  0  .  1
   Sr  Sr5  1  0.500000  0.500000  0.500000  0  .  1
   Mn  Mn6  1  0.000000  0.199970  0.399608  0  .  1
   Mn  Mn7  1  0.000000  0.800030  0.600392  0  .  1
   Mn  Mn8  1  0.000000  0.600392  0.199970  0  .  1
   Mn  Mn9  1  0.000000  0.399608  0.800030  0  .  1
   Mn  Mn10  1  0.000000  0.000000  0.000000  0  .  1
   O  O11  1  0.000000  0.710851  0.400999  0  .  1
   O  O12  1  0.000000  0.786920  0.074379  0  .  1
   O  O13  1  0.500000  0.833733  0.584254  0  .  1
   O  O14  1  0.000000  0.074379  0.213080  0  .  1
   O  O15  1  0.000000  0.599001  0.710851  0  .  1
   O  O16  1  0.000000  0.289149  0.599001  0  .  1
   O  O17  1  0.000000  0.213080  0.925621  0  .  1
   O  O18  1  0.500000  0.166267  0.415746  0  .  1
   O  O19  1  0.500000  0.415746  0.833733  0  .  1
   O  O20  1  0.500000  0.584254  0.166267  0  .  1
   O  O21  1  0.000000  0.925621  0.786920  0  .  1
   O  O22  1  0.500000  0.000000  0.000000  0  .  1
   O  O23  1  0.000000  0.400999  0.289149  0  .  1
 
