#\#CIF1.1
##########################################################################
#               Crystallographic Information Format file 
#               Produced by PyCifRW module
# 
#  This is a CIF file.  CIF has been adopted by the International
#  Union of Crystallography as the standard for data archiving and 
#  transmission.
#
#  For information on this file format, follow the CIF links at
#  http://www.iucr.org
##########################################################################

data_Sr7Mn4O15
_symmetry_space_group_name_H-M          'P 1'
_cell_length_a                          6.88809536788
_cell_length_b                          9.77968134
_cell_length_c                          10.57968202
_cell_angle_alpha                       90.0
_cell_angle_beta                        91.6943307251
_cell_angle_gamma                       90.0
_chemical_name_systematic               'Generated by pymatgen'
_symmetry_Int_Tables_number             1
_chemical_formula_structural            Sr7Mn4O15
_chemical_formula_sum                   'Sr14 Mn8 O30'
_cell_volume                            712.371524514
_cell_formula_units_Z                   2
loop_
  _symmetry_equiv_pos_site_id
  _symmetry_equiv_pos_as_xyz
   1  'x, y, z'
 
loop_
  _atom_site_type_symbol
  _atom_site_label
  _atom_site_symmetry_multiplicity
  _atom_site_fract_x
  _atom_site_fract_y
  _atom_site_fract_z
  _atom_site_attached_hydrogens
  _atom_site_B_iso_or_equiv
  _atom_site_occupancy
   O  O1  1  0.027710  0.253585  0.210516  0  .  1
   O  O2  1  0.972289  0.753585  0.289483  0  .  1
   O  O3  1  0.972289  0.746415  0.789483  0  .  1
   O  O4  1  0.027710  0.246415  0.710516  0  .  1
   O  O5  1  0.838406  0.481686  0.120240  0  .  1
   O  O6  1  0.161594  0.981686  0.379759  0  .  1
   O  O7  1  0.161593  0.518313  0.879759  0  .  1
   O  O8  1  0.838407  0.018314  0.620241  0  .  1
   O  O9  1  0.500000  0.500000  0.500000  0  .  1
   O  O10  1  0.499999  0.000000  0.000000  0  .  1
   O  O11  1  0.686092  0.280563  0.584467  0  .  1
   O  O12  1  0.313907  0.780563  0.915533  0  .  1
   O  O13  1  0.313907  0.719437  0.415533  0  .  1
   O  O14  1  0.686092  0.219436  0.084467  0  .  1
   O  O15  1  0.838938  0.417304  0.382451  0  .  1
   O  O16  1  0.161062  0.917303  0.117549  0  .  1
   O  O17  1  0.161063  0.582697  0.617549  0  .  1
   O  O18  1  0.838938  0.082697  0.882451  0  .  1
   O  O19  1  0.336052  0.254438  0.453802  0  .  1
   O  O20  1  0.663947  0.754439  0.046199  0  .  1
   O  O21  1  0.663947  0.745562  0.546199  0  .  1
   O  O22  1  0.336052  0.245562  0.953801  0  .  1
   O  O23  1  0.507440  0.101221  0.753296  0  .  1
   O  O24  1  0.492560  0.601222  0.746704  0  .  1
   O  O25  1  0.492559  0.898778  0.246704  0  .  1
   O  O26  1  0.507439  0.398779  0.253296  0  .  1
   O  O27  1  0.678590  0.325697  0.838273  0  .  1
   O  O28  1  0.321409  0.674302  0.161727  0  .  1
   O  O29  1  0.321409  0.825697  0.661727  0  .  1
   O  O30  1  0.678591  0.174302  0.338273  0  .  1
   Mn  Mn31  1  0.779949  0.331470  0.219445  0  .  1
   Mn  Mn32  1  0.220051  0.831470  0.280555  0  .  1
   Mn  Mn33  1  0.220052  0.668530  0.780555  0  .  1
   Mn  Mn34  1  0.779949  0.168530  0.719445  0  .  1
   Mn  Mn35  1  0.576700  0.332686  0.425512  0  .  1
   Mn  Mn36  1  0.423301  0.832686  0.074488  0  .  1
   Mn  Mn37  1  0.423301  0.667314  0.574488  0  .  1
   Mn  Mn38  1  0.576699  0.167314  0.925512  0  .  1
   Sr  Sr39  1  0.180085  0.003426  0.832162  0  .  1
   Sr  Sr40  1  0.819916  0.996574  0.167837  0  .  1
   Sr  Sr41  1  0.819916  0.503425  0.667838  0  .  1
   Sr  Sr42  1  0.180085  0.496574  0.332162  0  .  1
   Sr  Sr43  1  0.499999  0.500000  0.000000  0  .  1
   Sr  Sr44  1  0.500000  0.000000  0.500000  0  .  1
   Sr  Sr45  1  0.351395  0.350345  0.695325  0  .  1
   Sr  Sr46  1  0.648605  0.850344  0.804675  0  .  1
   Sr  Sr47  1  0.648604  0.649655  0.304674  0  .  1
   Sr  Sr48  1  0.351394  0.149655  0.195325  0  .  1
   Sr  Sr49  1  0.998047  0.314202  0.964655  0  .  1
   Sr  Sr50  1  0.001954  0.814203  0.535345  0  .  1
   Sr  Sr51  1  0.001954  0.685798  0.035345  0  .  1
   Sr  Sr52  1  0.998046  0.185798  0.464654  0  .  1
 
