#\#CIF1.1
##########################################################################
#               Crystallographic Information Format file 
#               Produced by PyCifRW module
# 
#  This is a CIF file.  CIF has been adopted by the International
#  Union of Crystallography as the standard for data archiving and 
#  transmission.
#
#  For information on this file format, follow the CIF links at
#  http://www.iucr.org
##########################################################################

data_Sr8Cu8O17
_symmetry_space_group_name_H-M          'P 1'
_cell_length_a                          7.82866533
_cell_length_b                          8.80261496512
_cell_length_c                          8.11856558673
_cell_angle_alpha                       64.2607942346
_cell_angle_beta                        90.0
_cell_angle_gamma                       63.5972357692
_chemical_name_systematic               'Generated by pymatgen'
_symmetry_Int_Tables_number             1
_chemical_formula_structural            Sr8Cu8O17
_chemical_formula_sum                   'Sr8 Cu8 O17'
_cell_volume                            438.273003023
_cell_formula_units_Z                   1
loop_
  _symmetry_equiv_pos_site_id
  _symmetry_equiv_pos_as_xyz
   1  'x, y, z'
 
loop_
  _atom_site_type_symbol
  _atom_site_label
  _atom_site_symmetry_multiplicity
  _atom_site_fract_x
  _atom_site_fract_y
  _atom_site_fract_z
  _atom_site_attached_hydrogens
  _atom_site_B_iso_or_equiv
  _atom_site_occupancy
   Sr  Sr1  1  0.186219  0.125000  0.250000  0  .  1
   Sr  Sr2  1  0.078646  0.365181  0.749948  0  .  1
   Sr  Sr3  1  0.437500  0.625000  0.250000  0  .  1
   Sr  Sr4  1  0.688781  0.125000  0.250000  0  .  1
   Sr  Sr5  1  0.318827  0.884819  0.750052  0  .  1
   Sr  Sr6  1  0.556173  0.365181  0.749948  0  .  1
   Sr  Sr7  1  0.796354  0.884819  0.750052  0  .  1
   Sr  Sr8  1  0.937500  0.625000  0.250000  0  .  1
   Cu  Cu9  1  0.002492  0.995016  0.009464  0  .  1
   Cu  Cu10  1  0.248759  0.502482  0.004798  0  .  1
   Cu  Cu11  1  0.121795  0.756410  0.496481  0  .  1
   Cu  Cu12  1  0.372401  0.255198  0.488414  0  .  1
   Cu  Cu13  1  0.502599  0.994802  0.011586  0  .  1
   Cu  Cu14  1  0.626241  0.747518  0.495202  0  .  1
   Cu  Cu15  1  0.753205  0.493590  0.003519  0  .  1
   Cu  Cu16  1  0.872508  0.254984  0.490536  0  .  1
   O  O17  1  0.999092  0.001816  0.503444  0  .  1
   O  O18  1  0.998930  0.502458  0.995229  0  .  1
   O  O19  1  0.115693  0.259903  0.480288  0  .  1
   O  O20  1  0.250596  0.990097  0.019712  0  .  1
   O  O21  1  0.372537  0.254927  0.016030  0  .  1
   O  O22  1  0.437500  0.125000  0.750000  0  .  1
   O  O23  1  0.502463  0.995073  0.483970  0  .  1
   O  O24  1  0.122338  0.755323  0.995392  0  .  1
   O  O25  1  0.239922  0.520154  0.483734  0  .  1
   O  O26  1  0.376389  0.747542  0.504771  0  .  1
   O  O27  1  0.624404  0.259903  0.480288  0  .  1
   O  O28  1  0.759307  0.990097  0.019712  0  .  1
   O  O29  1  0.498611  0.502458  0.995229  0  .  1
   O  O30  1  0.752662  0.494677  0.504608  0  .  1
   O  O31  1  0.875908  0.248184  0.996556  0  .  1
   O  O32  1  0.635078  0.729846  0.016266  0  .  1
   O  O33  1  0.876070  0.747542  0.504771  0  .  1
 
