#\#CIF1.1
##########################################################################
#               Crystallographic Information Format file 
#               Produced by PyCifRW module
# 
#  This is a CIF file.  CIF has been adopted by the International
#  Union of Crystallography as the standard for data archiving and 
#  transmission.
#
#  For information on this file format, follow the CIF links at
#  http://www.iucr.org
##########################################################################

data_SrCo12O19
_symmetry_space_group_name_H-M          'P 1'
_cell_length_a                          5.79608482
_cell_length_b                          5.79608521265
_cell_length_c                          22.39899845
_cell_angle_alpha                       90.0
_cell_angle_beta                        90.0
_cell_angle_gamma                       119.999997759
_chemical_name_systematic               'Generated by pymatgen'
_symmetry_Int_Tables_number             1
_chemical_formula_structural            SrCo12O19
_chemical_formula_sum                   'Sr2 Co24 O38'
_cell_volume                            651.671510731
_cell_formula_units_Z                   2
loop_
  _symmetry_equiv_pos_site_id
  _symmetry_equiv_pos_as_xyz
   1  'x, y, z'
 
loop_
  _atom_site_type_symbol
  _atom_site_label
  _atom_site_symmetry_multiplicity
  _atom_site_fract_x
  _atom_site_fract_y
  _atom_site_fract_z
  _atom_site_attached_hydrogens
  _atom_site_B_iso_or_equiv
  _atom_site_occupancy
   Sr  Sr1  1  0.666667  0.333333  0.250000  0  .  1
   Sr  Sr2  1  0.333333  0.666667  0.750000  0  .  1
   Co  Co3  1  0.167122  0.832878  0.889830  0  .  1
   Co  Co4  1  0.666667  0.333333  0.806719  0  .  1
   Co  Co5  1  0.832878  0.167122  0.389830  0  .  1
   Co  Co6  1  0.665756  0.832878  0.610170  0  .  1
   Co  Co7  1  0.000000  0.000000  0.000000  0  .  1
   Co  Co8  1  0.666667  0.333333  0.527094  0  .  1
   Co  Co9  1  0.832878  0.665756  0.110170  0  .  1
   Co  Co10  1  0.333333  0.666667  0.472906  0  .  1
   Co  Co11  1  0.333333  0.666667  0.027094  0  .  1
   Co  Co12  1  0.167122  0.334244  0.610170  0  .  1
   Co  Co13  1  0.832878  0.167122  0.110170  0  .  1
   Co  Co14  1  0.334244  0.167122  0.110170  0  .  1
   Co  Co15  1  0.832878  0.665756  0.389830  0  .  1
   Co  Co16  1  0.167122  0.334244  0.889830  0  .  1
   Co  Co17  1  0.000000  0.000000  0.500000  0  .  1
   Co  Co18  1  0.665756  0.832878  0.889830  0  .  1
   Co  Co19  1  0.666667  0.333333  0.972906  0  .  1
   Co  Co20  1  0.333333  0.666667  0.193281  0  .  1
   Co  Co21  1  0.167122  0.832878  0.610170  0  .  1
   Co  Co22  1  0.000000  0.000000  0.250000  0  .  1
   Co  Co23  1  0.333333  0.666667  0.306719  0  .  1
   Co  Co24  1  0.666667  0.333333  0.693281  0  .  1
   Co  Co25  1  0.000000  0.000000  0.750000  0  .  1
   Co  Co26  1  0.334244  0.167122  0.389830  0  .  1
   O  O27  1  0.333333  0.666667  0.560602  0  .  1
   O  O28  1  0.666667  0.333333  0.060602  0  .  1
   O  O29  1  0.000000  0.000000  0.838951  0  .  1
   O  O30  1  0.501523  1.003045  0.847275  0  .  1
   O  O31  1  0.498477  -0.003045  0.347275  0  .  1
   O  O32  1  0.000000  0.000000  0.161049  0  .  1
   O  O33  1  0.333333  0.666667  0.939398  0  .  1
   O  O34  1  0.703637  0.851818  0.446053  0  .  1
   O  O35  1  0.498477  0.501523  0.347275  0  .  1
   O  O36  1  0.501523  0.498477  0.847275  0  .  1
   O  O37  1  0.148182  0.296363  0.053947  0  .  1
   O  O38  1  0.148182  0.851818  0.053947  0  .  1
   O  O39  1  0.296363  0.148182  0.946053  0  .  1
   O  O40  1  0.498477  0.501523  0.152725  0  .  1
   O  O41  1  0.851818  0.703637  0.553947  0  .  1
   O  O42  1  0.501523  1.003045  0.652725  0  .  1
   O  O43  1  -0.003045  0.498477  0.847275  0  .  1
   O  O44  1  0.851818  0.148182  0.553947  0  .  1
   O  O45  1  0.188844  0.811156  0.250000  0  .  1
   O  O46  1  0.501523  0.498477  0.652725  0  .  1
   O  O47  1  1.003045  0.501523  0.347275  0  .  1
   O  O48  1  0.811156  0.622312  0.750000  0  .  1
   O  O49  1  0.148182  0.851818  0.446053  0  .  1
   O  O50  1  0.811156  0.188844  0.750000  0  .  1
   O  O51  1  1.003045  0.501523  0.152725  0  .  1
   O  O52  1  0.498477  -0.003045  0.152725  0  .  1
   O  O53  1  0.851818  0.703637  0.946053  0  .  1
   O  O54  1  0.148182  0.296363  0.446053  0  .  1
   O  O55  1  -0.003045  0.498477  0.652725  0  .  1
   O  O56  1  0.703637  0.851818  0.053947  0  .  1
   O  O57  1  0.851818  0.148182  0.946053  0  .  1
   O  O58  1  0.296363  0.148182  0.553947  0  .  1
   O  O59  1  0.000000  0.000000  0.338951  0  .  1
   O  O60  1  0.666667  0.333333  0.439398  0  .  1
   O  O61  1  0.622312  0.811156  0.250000  0  .  1
   O  O62  1  0.000000  0.000000  0.661049  0  .  1
   O  O63  1  0.377688  0.188844  0.750000  0  .  1
   O  O64  1  0.188844  0.377688  0.250000  0  .  1
 
