#\#CIF1.1
##########################################################################
#               Crystallographic Information Format file 
#               Produced by PyCifRW module
# 
#  This is a CIF file.  CIF has been adopted by the International
#  Union of Crystallography as the standard for data archiving and 
#  transmission.
#
#  For information on this file format, follow the CIF links at
#  http://www.iucr.org
##########################################################################

data_SrCoO3
_symmetry_space_group_name_H-M          'P 1'
_cell_length_a                          4.92884755479
_cell_length_b                          5.50023746172
_cell_length_c                          9.63170488071
_cell_angle_alpha                       90.3586922648
_cell_angle_beta                        95.7443770696
_cell_angle_gamma                       89.901671769
_chemical_name_systematic               'Generated by pymatgen'
_symmetry_Int_Tables_number             1
_chemical_formula_structural            SrCoO3
_chemical_formula_sum                   'Sr4 Co4 O12'
_cell_volume                            259.797430256
_cell_formula_units_Z                   4
loop_
  _symmetry_equiv_pos_site_id
  _symmetry_equiv_pos_as_xyz
   1  'x, y, z'
 
loop_
  _atom_site_type_symbol
  _atom_site_label
  _atom_site_symmetry_multiplicity
  _atom_site_fract_x
  _atom_site_fract_y
  _atom_site_fract_z
  _atom_site_attached_hydrogens
  _atom_site_B_iso_or_equiv
  _atom_site_occupancy
   Sr  Sr1  1  0.532820  0.252460  0.656218  0  .  1
   Sr  Sr2  1  0.465891  0.747404  0.343241  0  .  1
   Sr  Sr3  1  0.020917  0.750217  0.653678  0  .  1
   Sr  Sr4  1  0.977897  0.249513  0.346767  0  .  1
   Co  Co5  1  0.500253  1.000036  -0.000017  0  .  1
   Co  Co6  1  0.002686  0.249460  0.997181  0  .  1
   Co  Co7  1  0.500284  0.499925  -0.000006  0  .  1
   Co  Co8  1  0.998439  0.750563  0.002886  0  .  1
   O  O9  1  0.190441  0.001301  0.105616  0  .  1
   O  O10  1  0.685613  0.754377  0.103603  0  .  1
   O  O11  1  0.695266  0.248553  0.100199  0  .  1
   O  O12  1  0.486079  0.249393  0.394193  0  .  1
   O  O13  1  0.814141  0.500099  0.896852  0  .  1
   O  O14  1  0.305567  0.751436  0.899872  0  .  1
   O  O15  1  0.186651  0.499827  0.103191  0  .  1
   O  O16  1  0.512503  0.750767  0.605427  0  .  1
   O  O17  1  0.810395  0.998702  0.894432  0  .  1
   O  O18  1  0.315284  0.245600  0.896518  0  .  1
   O  O19  1  0.020984  0.256870  0.604824  0  .  1
   O  O20  1  0.977887  0.743495  0.395326  0  .  1
 
