#\#CIF1.1
##########################################################################
#               Crystallographic Information Format file 
#               Produced by PyCifRW module
# 
#  This is a CIF file.  CIF has been adopted by the International
#  Union of Crystallography as the standard for data archiving and 
#  transmission.
#
#  For information on this file format, follow the CIF links at
#  http://www.iucr.org
##########################################################################

data_SrNiO3
_symmetry_space_group_name_H-M          'P 1'
_cell_length_a                          5.50045051728
_cell_length_b                          3.88533485638
_cell_length_c                          3.87665859306
_cell_angle_alpha                       89.9477453888
_cell_angle_beta                        90.0051138661
_cell_angle_gamma                       45.0889329338
_chemical_name_systematic               'Generated by pymatgen'
_symmetry_Int_Tables_number             1
_chemical_formula_structural            SrNiO3
_chemical_formula_sum                   'Sr1 Ni1 O3'
_cell_volume                            58.6734891736
_cell_formula_units_Z                   1
loop_
  _symmetry_equiv_pos_site_id
  _symmetry_equiv_pos_as_xyz
   1  'x, y, z'
 
loop_
  _atom_site_type_symbol
  _atom_site_label
  _atom_site_symmetry_multiplicity
  _atom_site_fract_x
  _atom_site_fract_y
  _atom_site_fract_z
  _atom_site_attached_hydrogens
  _atom_site_B_iso_or_equiv
  _atom_site_occupancy
   Sr  Sr1  1  0.998581  0.006855  0.503302  0  .  1
   Ni  Ni2  1  0.498645  0.006640  0.004267  0  .  1
   O  O3  1  0.509382  0.994913  0.504824  0  .  1
   O  O4  1  0.487098  0.520060  0.007512  0  .  1
   O  O5  1  0.998454  0.514709  0.007397  0  .  1
 
