#\#CIF1.1
##########################################################################
#               Crystallographic Information Format file 
#               Produced by PyCifRW module
# 
#  This is a CIF file.  CIF has been adopted by the International
#  Union of Crystallography as the standard for data archiving and 
#  transmission.
#
#  For information on this file format, follow the CIF links at
#  http://www.iucr.org
##########################################################################

data_SrS2
_symmetry_space_group_name_H-M          'P 1'
_cell_length_a                          5.81906285358
_cell_length_b                          5.81906285757
_cell_length_c                          5.81906285076
_cell_angle_alpha                       96.5098734925
_cell_angle_beta                        116.315441669
_cell_angle_gamma                       116.315441726
_chemical_name_systematic               'Generated by pymatgen'
_symmetry_Int_Tables_number             1
_chemical_formula_structural            SrS2
_chemical_formula_sum                   'Sr2 S4'
_cell_volume                            146.068145566
_cell_formula_units_Z                   2
loop_
  _symmetry_equiv_pos_site_id
  _symmetry_equiv_pos_as_xyz
   1  'x, y, z'
 
loop_
  _atom_site_type_symbol
  _atom_site_label
  _atom_site_symmetry_multiplicity
  _atom_site_fract_x
  _atom_site_fract_y
  _atom_site_fract_z
  _atom_site_attached_hydrogens
  _atom_site_B_iso_or_equiv
  _atom_site_occupancy
   S  S1  1  0.255886  0.377943  0.877943  0  .  1
   S  S2  1  0.500000  0.877943  0.622057  0  .  1
   S  S3  1  0.744114  0.622057  0.122057  0  .  1
   S  S4  1  0.500000  0.122057  0.377943  0  .  1
   Sr  Sr5  1  0.000000  0.750000  0.750000  0  .  1
   Sr  Sr6  1  0.000000  0.250000  0.250000  0  .  1
 
