#\#CIF1.1
##########################################################################
#               Crystallographic Information Format file 
#               Produced by PyCifRW module
# 
#  This is a CIF file.  CIF has been adopted by the International
#  Union of Crystallography as the standard for data archiving and 
#  transmission.
#
#  For information on this file format, follow the CIF links at
#  http://www.iucr.org
##########################################################################

data_SrS3
_symmetry_space_group_name_H-M          'P 1'
_cell_length_a                          5.43903289921
_cell_length_b                          5.4390328947
_cell_length_c                          7.00896281
_cell_angle_alpha                       90.0
_cell_angle_beta                        90.0
_cell_angle_gamma                       95.991456005
_chemical_name_systematic               'Generated by pymatgen'
_symmetry_Int_Tables_number             1
_chemical_formula_structural            SrS3
_chemical_formula_sum                   'Sr2 S6'
_cell_volume                            206.214062277
_cell_formula_units_Z                   2
loop_
  _symmetry_equiv_pos_site_id
  _symmetry_equiv_pos_as_xyz
   1  'x, y, z'
 
loop_
  _atom_site_type_symbol
  _atom_site_label
  _atom_site_symmetry_multiplicity
  _atom_site_fract_x
  _atom_site_fract_y
  _atom_site_fract_z
  _atom_site_attached_hydrogens
  _atom_site_B_iso_or_equiv
  _atom_site_occupancy
   S  S1  1  0.533167  0.533167  0.000000  0  .  1
   S  S2  1  0.033167  0.033167  0.500000  0  .  1
   S  S3  1  0.195663  0.524695  0.857581  0  .  1
   S  S4  1  0.524695  0.195663  0.142419  0  .  1
   S  S5  1  0.695663  0.024695  0.642419  0  .  1
   S  S6  1  0.024695  0.695663  0.357581  0  .  1
   Sr  Sr7  1  0.002575  0.002575  0.000000  0  .  1
   Sr  Sr8  1  0.502575  0.502575  0.500000  0  .  1
 
