#\#CIF1.1
##########################################################################
#               Crystallographic Information Format file 
#               Produced by PyCifRW module
# 
#  This is a CIF file.  CIF has been adopted by the International
#  Union of Crystallography as the standard for data archiving and 
#  transmission.
#
#  For information on this file format, follow the CIF links at
#  http://www.iucr.org
##########################################################################

data_SrV13O18
_symmetry_space_group_name_H-M          'P 1'
_cell_length_a                          7.99473072332
_cell_length_b                          7.99473086325
_cell_length_c                          7.99473079138
_cell_angle_alpha                       110.690905051
_cell_angle_beta                        110.690905448
_cell_angle_gamma                       110.690914561
_chemical_name_systematic               'Generated by pymatgen'
_symmetry_Int_Tables_number             1
_chemical_formula_structural            SrV13O18
_chemical_formula_sum                   'Sr1 V13 O18'
_cell_volume                            374.54590735
_cell_formula_units_Z                   1
loop_
  _symmetry_equiv_pos_site_id
  _symmetry_equiv_pos_as_xyz
   1  'x, y, z'
 
loop_
  _atom_site_type_symbol
  _atom_site_label
  _atom_site_symmetry_multiplicity
  _atom_site_fract_x
  _atom_site_fract_y
  _atom_site_fract_z
  _atom_site_attached_hydrogens
  _atom_site_B_iso_or_equiv
  _atom_site_occupancy
   Sr  Sr1  1  0.000000  0.000000  0.000000  0  .  1
   V  V2  1  0.500000  0.500000  0.500000  0  .  1
   V  V3  1  0.072087  0.879390  0.563901  0  .  1
   V  V4  1  0.563901  0.072087  0.879390  0  .  1
   V  V5  1  0.879390  0.563901  0.072087  0  .  1
   V  V6  1  0.927913  0.120610  0.436099  0  .  1
   V  V7  1  0.436099  0.927913  0.120610  0  .  1
   V  V8  1  0.120610  0.436099  0.927913  0  .  1
   V  V9  1  0.600542  0.657726  0.232847  0  .  1
   V  V10  1  0.232847  0.600542  0.657726  0  .  1
   V  V11  1  0.657726  0.232847  0.600542  0  .  1
   V  V12  1  0.399458  0.342274  0.767153  0  .  1
   V  V13  1  0.767153  0.399458  0.342274  0  .  1
   V  V14  1  0.342274  0.767153  0.399458  0  .  1
   O  O15  1  0.503380  0.227327  0.331277  0  .  1
   O  O16  1  0.331277  0.503380  0.227327  0  .  1
   O  O17  1  0.227327  0.331277  0.503380  0  .  1
   O  O18  1  0.496620  0.772673  0.668723  0  .  1
   O  O19  1  0.668723  0.496620  0.772673  0  .  1
   O  O20  1  0.772673  0.668723  0.496620  0  .  1
   O  O21  1  0.878285  0.826559  0.260783  0  .  1
   O  O22  1  0.260783  0.878285  0.826559  0  .  1
   O  O23  1  0.826559  0.260783  0.878285  0  .  1
   O  O24  1  0.121715  0.173441  0.739217  0  .  1
   O  O25  1  0.739217  0.121715  0.173441  0  .  1
   O  O26  1  0.173441  0.739217  0.121715  0  .  1
   O  O27  1  0.616857  0.947904  0.402737  0  .  1
   O  O28  1  0.402737  0.616857  0.947904  0  .  1
   O  O29  1  0.947904  0.402737  0.616857  0  .  1
   O  O30  1  0.383143  0.052096  0.597263  0  .  1
   O  O31  1  0.597263  0.383143  0.052096  0  .  1
   O  O32  1  0.052096  0.597263  0.383143  0  .  1
 
