#\#CIF1.1
##########################################################################
#               Crystallographic Information Format file 
#               Produced by PyCifRW module
# 
#  This is a CIF file.  CIF has been adopted by the International
#  Union of Crystallography as the standard for data archiving and 
#  transmission.
#
#  For information on this file format, follow the CIF links at
#  http://www.iucr.org
##########################################################################

data_SrV3O7
_symmetry_space_group_name_H-M          'P 1'
_cell_length_a                          5.37608019
_cell_length_b                          10.58727073
_cell_length_c                          11.37456289
_cell_angle_alpha                       90.0
_cell_angle_beta                        90.0
_cell_angle_gamma                       90.0
_chemical_name_systematic               'Generated by pymatgen'
_symmetry_Int_Tables_number             1
_chemical_formula_structural            SrV3O7
_chemical_formula_sum                   'Sr4 V12 O28'
_cell_volume                            647.417557545
_cell_formula_units_Z                   4
loop_
  _symmetry_equiv_pos_site_id
  _symmetry_equiv_pos_as_xyz
   1  'x, y, z'
 
loop_
  _atom_site_type_symbol
  _atom_site_label
  _atom_site_symmetry_multiplicity
  _atom_site_fract_x
  _atom_site_fract_y
  _atom_site_fract_z
  _atom_site_attached_hydrogens
  _atom_site_B_iso_or_equiv
  _atom_site_occupancy
   Sr  Sr1  1  0.756747  0.750000  0.427022  0  .  1
   Sr  Sr2  1  0.256747  0.250000  0.072978  0  .  1
   Sr  Sr3  1  0.243253  0.250000  0.572978  0  .  1
   Sr  Sr4  1  0.743253  0.750000  0.927022  0  .  1
   V  V5  1  0.754872  0.979654  0.191463  0  .  1
   V  V6  1  0.254872  0.020346  0.308537  0  .  1
   V  V7  1  0.245128  0.479654  0.808537  0  .  1
   V  V8  1  0.745128  0.520346  0.691463  0  .  1
   V  V9  1  0.245128  0.020346  0.808537  0  .  1
   V  V10  1  0.745128  0.979654  0.691463  0  .  1
   V  V11  1  0.754872  0.520346  0.191463  0  .  1
   V  V12  1  0.254872  0.479654  0.308537  0  .  1
   V  V13  1  0.255218  0.750000  0.211703  0  .  1
   V  V14  1  0.755218  0.250000  0.288297  0  .  1
   V  V15  1  0.744782  0.250000  0.788297  0  .  1
   V  V16  1  0.244782  0.750000  0.711703  0  .  1
   O  O17  1  0.491489  0.880645  0.274255  0  .  1
   O  O18  1  0.991489  0.119355  0.225745  0  .  1
   O  O19  1  0.508511  0.380645  0.725745  0  .  1
   O  O20  1  0.008511  0.619355  0.774255  0  .  1
   O  O21  1  0.508511  0.119355  0.725745  0  .  1
   O  O22  1  0.008511  0.880645  0.774255  0  .  1
   O  O23  1  0.491489  0.619355  0.274255  0  .  1
   O  O24  1  0.991489  0.380645  0.225745  0  .  1
   O  O25  1  0.018494  0.880662  0.274130  0  .  1
   O  O26  1  0.518494  0.119338  0.225870  0  .  1
   O  O27  1  0.981506  0.380662  0.725870  0  .  1
   O  O28  1  0.481506  0.619338  0.774130  0  .  1
   O  O29  1  0.981506  0.119338  0.725870  0  .  1
   O  O30  1  0.481506  0.880662  0.774130  0  .  1
   O  O31  1  0.018494  0.619338  0.274130  0  .  1
   O  O32  1  0.518494  0.380662  0.225870  0  .  1
   O  O33  1  0.753894  0.939324  0.050619  0  .  1
   O  O34  1  0.253894  0.060676  0.449381  0  .  1
   O  O35  1  0.246106  0.439324  0.949381  0  .  1
   O  O36  1  0.746106  0.560676  0.550619  0  .  1
   O  O37  1  0.246106  0.060676  0.949381  0  .  1
   O  O38  1  0.746106  0.939324  0.550619  0  .  1
   O  O39  1  0.753894  0.560676  0.050619  0  .  1
   O  O40  1  0.253894  0.439324  0.449381  0  .  1
   O  O41  1  0.256448  0.750000  0.065785  0  .  1
   O  O42  1  0.756448  0.250000  0.434215  0  .  1
   O  O43  1  0.743552  0.250000  0.934215  0  .  1
   O  O44  1  0.243552  0.750000  0.565785  0  .  1
 
