#\#CIF1.1
##########################################################################
#               Crystallographic Information Format file 
#               Produced by PyCifRW module
# 
#  This is a CIF file.  CIF has been adopted by the International
#  Union of Crystallography as the standard for data archiving and 
#  transmission.
#
#  For information on this file format, follow the CIF links at
#  http://www.iucr.org
##########################################################################

data_SrV4O9
_symmetry_space_group_name_H-M          'P 1'
_cell_length_a                          5.55850684
_cell_length_b                          8.46943612
_cell_length_c                          8.46943612
_cell_angle_alpha                       90.0
_cell_angle_beta                        90.0
_cell_angle_gamma                       90.0
_chemical_name_systematic               'Generated by pymatgen'
_symmetry_Int_Tables_number             1
_chemical_formula_structural            SrV4O9
_chemical_formula_sum                   'Sr2 V8 O18'
_cell_volume                            398.719189561
_cell_formula_units_Z                   2
loop_
  _symmetry_equiv_pos_site_id
  _symmetry_equiv_pos_as_xyz
   1  'x, y, z'
 
loop_
  _atom_site_type_symbol
  _atom_site_label
  _atom_site_symmetry_multiplicity
  _atom_site_fract_x
  _atom_site_fract_y
  _atom_site_fract_z
  _atom_site_attached_hydrogens
  _atom_site_B_iso_or_equiv
  _atom_site_occupancy
   O  O1  1  0.500000  0.750000  0.250000  0  .  1
   O  O2  1  0.500000  0.250000  0.750000  0  .  1
   O  O3  1  0.093228  0.677324  0.001539  0  .  1
   O  O4  1  0.093228  0.498461  0.677324  0  .  1
   O  O5  1  0.093228  0.001539  0.822676  0  .  1
   O  O6  1  0.093228  0.822676  0.498461  0  .  1
   O  O7  1  0.906772  0.322676  0.998461  0  .  1
   O  O8  1  0.906772  0.501539  0.322676  0  .  1
   O  O9  1  0.906772  0.998461  0.177324  0  .  1
   O  O10  1  0.906772  0.177324  0.501539  0  .  1
   O  O11  1  0.462293  0.041770  0.357512  0  .  1
   O  O12  1  0.462293  0.142488  0.041770  0  .  1
   O  O13  1  0.462293  0.357512  0.458230  0  .  1
   O  O14  1  0.462293  0.458230  0.142488  0  .  1
   O  O15  1  0.537707  0.958230  0.642488  0  .  1
   O  O16  1  0.537707  0.857512  0.958230  0  .  1
   O  O17  1  0.537707  0.642488  0.541770  0  .  1
   O  O18  1  0.537707  0.541770  0.857512  0  .  1
   V  V19  1  0.384078  0.659736  0.035248  0  .  1
   V  V20  1  0.384078  0.464752  0.659736  0  .  1
   V  V21  1  0.384078  0.035248  0.840264  0  .  1
   V  V22  1  0.384078  0.840264  0.464752  0  .  1
   V  V23  1  0.615922  0.340264  0.964752  0  .  1
   V  V24  1  0.615922  0.535248  0.340264  0  .  1
   V  V25  1  0.615922  0.964752  0.159736  0  .  1
   V  V26  1  0.615922  0.159736  0.535248  0  .  1
   Sr  Sr27  1  0.859405  0.750000  0.750000  0  .  1
   Sr  Sr28  1  0.140595  0.250000  0.250000  0  .  1
 
