#\#CIF1.1
##########################################################################
#               Crystallographic Information Format file 
#               Produced by PyCifRW module
# 
#  This is a CIF file.  CIF has been adopted by the International
#  Union of Crystallography as the standard for data archiving and 
#  transmission.
#
#  For information on this file format, follow the CIF links at
#  http://www.iucr.org
##########################################################################

data_SrV4O10
_symmetry_space_group_name_H-M          'P 1'
_cell_length_a                          8.18496081947
_cell_length_b                          7.46832813814
_cell_length_c                          9.06207532874
_cell_angle_alpha                       90.0411381289
_cell_angle_beta                        88.4423220323
_cell_angle_gamma                       46.9438125862
_chemical_name_systematic               'Generated by pymatgen'
_symmetry_Int_Tables_number             1
_chemical_formula_structural            SrV4O10
_chemical_formula_sum                   'Sr2 V8 O20'
_cell_volume                            404.469498367
_cell_formula_units_Z                   2
loop_
  _symmetry_equiv_pos_site_id
  _symmetry_equiv_pos_as_xyz
   1  'x, y, z'
 
loop_
  _atom_site_type_symbol
  _atom_site_label
  _atom_site_symmetry_multiplicity
  _atom_site_fract_x
  _atom_site_fract_y
  _atom_site_fract_z
  _atom_site_attached_hydrogens
  _atom_site_B_iso_or_equiv
  _atom_site_occupancy
   Sr  Sr1  1  0.182309  0.110461  0.013202  0  .  1
   Sr  Sr2  1  0.817691  0.889539  0.986798  0  .  1
   V  V3  1  0.121034  0.414205  0.660718  0  .  1
   V  V4  1  0.456938  0.662141  0.340001  0  .  1
   V  V5  1  0.543062  0.337859  0.659999  0  .  1
   V  V6  1  0.878966  0.585795  0.339282  0  .  1
   V  V7  1  0.137093  0.891867  0.660342  0  .  1
   V  V8  1  0.472588  0.140129  0.334878  0  .  1
   V  V9  1  0.527412  0.859871  0.665122  0  .  1
   V  V10  1  0.862907  0.108133  0.339658  0  .  1
   O  O11  1  0.079307  0.924237  0.845209  0  .  1
   O  O12  1  0.086577  0.452572  0.846205  0  .  1
   O  O13  1  0.155323  0.378474  0.397103  0  .  1
   O  O14  1  0.174332  0.873381  0.410829  0  .  1
   O  O15  1  0.199723  0.108008  0.650314  0  .  1
   O  O16  1  0.207248  0.587456  0.629087  0  .  1
   O  O17  1  0.432037  0.702688  0.160840  0  .  1
   O  O18  1  0.446216  0.135898  0.150835  0  .  1
   O  O19  1  0.469875  0.152550  0.603878  0  .  1
   O  O20  1  0.471717  0.640200  0.633780  0  .  1
   O  O21  1  0.528283  0.359800  0.366220  0  .  1
   O  O22  1  0.530125  0.847450  0.396122  0  .  1
   O  O23  1  0.553784  0.864102  0.849165  0  .  1
   O  O24  1  0.567963  0.297312  0.839160  0  .  1
   O  O25  1  0.792752  0.412544  0.370913  0  .  1
   O  O26  1  0.800277  0.891992  0.349686  0  .  1
   O  O27  1  0.825668  0.126619  0.589171  0  .  1
   O  O28  1  0.844677  0.621526  0.602897  0  .  1
   O  O29  1  0.913423  0.547428  0.153795  0  .  1
   O  O30  1  0.920693  0.075763  0.154791  0  .  1
 
