#\#CIF1.1
##########################################################################
#               Crystallographic Information Format file 
#               Produced by PyCifRW module
# 
#  This is a CIF file.  CIF has been adopted by the International
#  Union of Crystallography as the standard for data archiving and 
#  transmission.
#
#  For information on this file format, follow the CIF links at
#  http://www.iucr.org
##########################################################################

data_Th(CrSi)2
_symmetry_space_group_name_H-M          'P 1'
_cell_length_a                          4.00441416656
_cell_length_b                          4.00441417254
_cell_length_c                          5.99857407547
_cell_angle_alpha                       109.498398122
_cell_angle_beta                        109.498398227
_cell_angle_gamma                       89.9999999539
_chemical_name_systematic               'Generated by pymatgen'
_symmetry_Int_Tables_number             1
_chemical_formula_structural            Th(CrSi)2
_chemical_formula_sum                   'Th1 Cr2 Si2'
_cell_volume                            84.7982976926
_cell_formula_units_Z                   1
loop_
  _symmetry_equiv_pos_site_id
  _symmetry_equiv_pos_as_xyz
   1  'x, y, z'
 
loop_
  _atom_site_type_symbol
  _atom_site_label
  _atom_site_symmetry_multiplicity
  _atom_site_fract_x
  _atom_site_fract_y
  _atom_site_fract_z
  _atom_site_attached_hydrogens
  _atom_site_B_iso_or_equiv
  _atom_site_occupancy
   Si  Si1  1  0.622130  0.622130  0.244260  0  .  1
   Si  Si2  1  0.377870  0.377870  0.755740  0  .  1
   Cr  Cr3  1  0.250000  0.750000  0.500000  0  .  1
   Cr  Cr4  1  0.750000  0.250000  0.500000  0  .  1
   Th  Th5  1  0.000000  0.000000  0.000000  0  .  1
 
