#\#CIF1.1
##########################################################################
#               Crystallographic Information Format file 
#               Produced by PyCifRW module
# 
#  This is a CIF file.  CIF has been adopted by the International
#  Union of Crystallography as the standard for data archiving and 
#  transmission.
#
#  For information on this file format, follow the CIF links at
#  http://www.iucr.org
##########################################################################

data_Ti4VO8
_symmetry_space_group_name_H-M          'P 1'
_cell_length_a                          5.93868069889
_cell_length_b                          5.93868073842
_cell_length_c                          5.84170050189
_cell_angle_alpha                       89.8817577167
_cell_angle_beta                        59.442473183
_cell_angle_gamma                       59.8722862451
_chemical_name_systematic               'Generated by pymatgen'
_symmetry_Int_Tables_number             1
_chemical_formula_structural            Ti4VO8
_chemical_formula_sum                   'Ti4 V1 O8'
_cell_volume                            144.31176297
_cell_formula_units_Z                   1
loop_
  _symmetry_equiv_pos_site_id
  _symmetry_equiv_pos_as_xyz
   1  'x, y, z'
 
loop_
  _atom_site_type_symbol
  _atom_site_label
  _atom_site_symmetry_multiplicity
  _atom_site_fract_x
  _atom_site_fract_y
  _atom_site_fract_z
  _atom_site_attached_hydrogens
  _atom_site_B_iso_or_equiv
  _atom_site_occupancy
   Ti  Ti1  1  0.000000  0.500000  0.500000  0  .  1
   Ti  Ti2  1  0.000000  0.000000  0.000000  0  .  1
   Ti  Ti3  1  0.500000  0.000000  0.000000  0  .  1
   Ti  Ti4  1  0.000000  0.500000  0.000000  0  .  1
   V  V5  1  0.500000  0.500000  0.000000  0  .  1
   O  O6  1  0.465717  0.261566  0.795848  0  .  1
   O  O7  1  0.991398  0.259581  0.759996  0  .  1
   O  O8  1  0.499586  0.751393  0.759996  0  .  1
   O  O9  1  0.989860  0.749141  0.759281  0  .  1
   O  O10  1  0.010140  0.250859  0.240719  0  .  1
   O  O11  1  0.500414  0.248607  0.240004  0  .  1
   O  O12  1  0.008602  0.740419  0.240004  0  .  1
   O  O13  1  0.534283  0.738434  0.204152  0  .  1
 
