#\#CIF1.1
##########################################################################
#               Crystallographic Information Format file 
#               Produced by PyCifRW module
# 
#  This is a CIF file.  CIF has been adopted by the International
#  Union of Crystallography as the standard for data archiving and 
#  transmission.
#
#  For information on this file format, follow the CIF links at
#  http://www.iucr.org
##########################################################################

data_TiBr3
_symmetry_space_group_name_H-M          'P 1'
_cell_length_a                          7.63880175801
_cell_length_b                          7.6388018848
_cell_length_c                          7.63880176305
_cell_angle_alpha                       50.2127877208
_cell_angle_beta                        50.2127869874
_cell_angle_gamma                       50.2127913851
_chemical_name_systematic               'Generated by pymatgen'
_symmetry_Int_Tables_number             1
_chemical_formula_structural            TiBr3
_chemical_formula_sum                   'Ti2 Br6'
_cell_volume                            242.330694241
_cell_formula_units_Z                   2
loop_
  _symmetry_equiv_pos_site_id
  _symmetry_equiv_pos_as_xyz
   1  'x, y, z'
 
loop_
  _atom_site_type_symbol
  _atom_site_label
  _atom_site_symmetry_multiplicity
  _atom_site_fract_x
  _atom_site_fract_y
  _atom_site_fract_z
  _atom_site_attached_hydrogens
  _atom_site_B_iso_or_equiv
  _atom_site_occupancy
   Ti  Ti1  1  0.333414  0.333414  0.333414  0  .  1
   Ti  Ti2  1  0.666586  0.666586  0.666586  0  .  1
   Br  Br3  1  0.724642  0.426518  0.075037  0  .  1
   Br  Br4  1  0.924963  0.275358  0.573482  0  .  1
   Br  Br5  1  0.275358  0.573482  0.924963  0  .  1
   Br  Br6  1  0.426518  0.075037  0.724642  0  .  1
   Br  Br7  1  0.573482  0.924963  0.275358  0  .  1
   Br  Br8  1  0.075037  0.724642  0.426518  0  .  1
 
