#\#CIF1.1
##########################################################################
#               Crystallographic Information Format file 
#               Produced by PyCifRW module
# 
#  This is a CIF file.  CIF has been adopted by the International
#  Union of Crystallography as the standard for data archiving and 
#  transmission.
#
#  For information on this file format, follow the CIF links at
#  http://www.iucr.org
##########################################################################

data_TiV15O24
_symmetry_space_group_name_H-M          'P 1'
_cell_length_a                          5.55924721485
_cell_length_b                          9.16047820423
_cell_length_c                          9.14900849666
_cell_angle_alpha                       68.3680801342
_cell_angle_beta                        95.1519828192
_cell_angle_gamma                       95.1009764262
_chemical_name_systematic               'Generated by pymatgen'
_symmetry_Int_Tables_number             1
_chemical_formula_structural            TiV15O24
_chemical_formula_sum                   'Ti1 V15 O24'
_cell_volume                            430.568520998
_cell_formula_units_Z                   1
loop_
  _symmetry_equiv_pos_site_id
  _symmetry_equiv_pos_as_xyz
   1  'x, y, z'
 
loop_
  _atom_site_type_symbol
  _atom_site_label
  _atom_site_symmetry_multiplicity
  _atom_site_fract_x
  _atom_site_fract_y
  _atom_site_fract_z
  _atom_site_attached_hydrogens
  _atom_site_B_iso_or_equiv
  _atom_site_occupancy
   Ti  Ti1  1  0.706335  0.071003  0.072213  0  .  1
   V  V2  1  0.201102  0.072921  0.577891  0  .  1
   V  V3  1  0.301475  0.173250  0.178619  0  .  1
   V  V4  1  0.299233  0.426642  0.424990  0  .  1
   V  V5  1  0.803394  0.178134  0.672265  0  .  1
   V  V6  1  0.200612  0.323870  0.823937  0  .  1
   V  V7  1  0.199075  0.574111  0.074097  0  .  1
   V  V8  1  0.701499  0.324890  0.324780  0  .  1
   V  V9  1  0.203150  0.825042  0.324309  0  .  1
   V  V10  1  0.796845  0.673421  0.172162  0  .  1
   V  V11  1  0.702169  0.576294  0.573458  0  .  1
   V  V12  1  0.298721  0.675567  0.675300  0  .  1
   V  V13  1  0.796119  0.424516  0.925332  0  .  1
   V  V14  1  0.797386  0.926769  0.427074  0  .  1
   V  V15  1  0.696676  0.823251  0.827337  0  .  1
   V  V16  1  0.301301  0.925005  0.924596  0  .  1
   O  O17  1  0.152169  0.026339  0.376673  0  .  1
   O  O18  1  0.989838  0.214467  0.031292  0  .  1
   O  O19  1  0.655051  0.127345  0.274191  0  .  1
   O  O20  1  0.002845  0.277967  0.471350  0  .  1
   O  O21  1  0.149374  0.128700  0.776450  0  .  1
   O  O22  1  0.661129  0.032058  0.881729  0  .  1
   O  O23  1  0.503737  0.224673  0.527075  0  .  1
   O  O24  1  0.346068  0.374297  0.222347  0  .  1
   O  O25  1  0.149964  0.626948  0.277118  0  .  1
   O  O26  1  0.498325  0.273210  0.974042  0  .  1
   O  O27  1  0.846568  0.470038  0.123920  0  .  1
   O  O28  1  0.349013  0.474804  0.624047  0  .  1
   O  O29  1  0.150547  0.523085  0.875248  0  .  1
   O  O30  1  0.653294  0.528552  0.373247  0  .  1
   O  O31  1  0.499385  0.719731  0.029568  0  .  1
   O  O32  1  0.001897  0.724475  0.524970  0  .  1
   O  O33  1  0.847373  0.376444  0.723405  0  .  1
   O  O34  1  0.650825  0.624671  0.776311  0  .  1
   O  O35  1  0.503815  0.778583  0.471446  0  .  1
   O  O36  1  0.995262  0.773526  0.974924  0  .  1
   O  O37  1  0.352900  0.974062  0.129188  0  .  1
   O  O38  1  0.842076  0.883671  0.216260  0  .  1
   O  O39  1  0.349569  0.874718  0.720066  0  .  1
   O  O40  1  0.843889  0.972948  0.626770  0  .  1
 
