#\#CIF1.1
##########################################################################
#               Crystallographic Information Format file 
#               Produced by PyCifRW module
# 
#  This is a CIF file.  CIF has been adopted by the International
#  Union of Crystallography as the standard for data archiving and 
#  transmission.
#
#  For information on this file format, follow the CIF links at
#  http://www.iucr.org
##########################################################################

data_TiV3O8
_symmetry_space_group_name_H-M          'P 1'
_cell_length_a                          6.42335917015
_cell_length_b                          6.4233587742
_cell_length_c                          6.56786322082
_cell_angle_alpha                       73.7578780593
_cell_angle_beta                        106.242119671
_cell_angle_gamma                       145.942370488
_chemical_name_systematic               'Generated by pymatgen'
_symmetry_Int_Tables_number             1
_chemical_formula_structural            TiV3O8
_chemical_formula_sum                   'Ti1 V3 O8'
_cell_volume                            145.1217535
_cell_formula_units_Z                   1
loop_
  _symmetry_equiv_pos_site_id
  _symmetry_equiv_pos_as_xyz
   1  'x, y, z'
 
loop_
  _atom_site_type_symbol
  _atom_site_label
  _atom_site_symmetry_multiplicity
  _atom_site_fract_x
  _atom_site_fract_y
  _atom_site_fract_z
  _atom_site_attached_hydrogens
  _atom_site_B_iso_or_equiv
  _atom_site_occupancy
   Ti  Ti1  1  0.690693  0.309306  0.278089  0  .  1
   V  V2  1  0.397560  0.602440  0.307670  0  .  1
   V  V3  1  0.601406  0.398594  0.700702  0  .  1
   V  V4  1  0.302349  0.697651  0.726950  0  .  1
   O  O5  1  0.141761  0.858239  0.706839  0  .  1
   O  O6  1  0.236033  0.763967  0.344391  0  .  1
   O  O7  1  0.366931  0.633069  0.995545  0  .  1
   O  O8  1  0.444345  0.555655  0.624443  0  .  1
   O  O9  1  0.557637  0.442363  0.366218  0  .  1
   O  O10  1  0.633940  0.366060  0.000154  0  .  1
   O  O11  1  0.759817  0.240183  0.652382  0  .  1
   O  O12  1  0.867527  0.132473  0.296615  0  .  1
 
