#\#CIF1.1
##########################################################################
#               Crystallographic Information Format file 
#               Produced by PyCifRW module
# 
#  This is a CIF file.  CIF has been adopted by the International
#  Union of Crystallography as the standard for data archiving and 
#  transmission.
#
#  For information on this file format, follow the CIF links at
#  http://www.iucr.org
##########################################################################

data_Tm(FeB)2
_symmetry_space_group_name_H-M          'P 1'
_cell_length_a                          3.48265736288
_cell_length_b                          3.48265735886
_cell_length_c                          5.30619807582
_cell_angle_alpha                       109.157667008
_cell_angle_beta                        109.157666923
_cell_angle_gamma                       90.0000000075
_chemical_name_systematic               'Generated by pymatgen'
_symmetry_Int_Tables_number             1
_chemical_formula_structural            Tm(FeB)2
_chemical_formula_sum                   'Tm1 Fe2 B2'
_cell_volume                            57.0075012648
_cell_formula_units_Z                   1
loop_
  _symmetry_equiv_pos_site_id
  _symmetry_equiv_pos_as_xyz
   1  'x, y, z'
 
loop_
  _atom_site_type_symbol
  _atom_site_label
  _atom_site_symmetry_multiplicity
  _atom_site_fract_x
  _atom_site_fract_y
  _atom_site_fract_z
  _atom_site_attached_hydrogens
  _atom_site_B_iso_or_equiv
  _atom_site_occupancy
   B  B1  1  0.624027  0.624027  0.248055  0  .  1
   B  B2  1  0.375973  0.375973  0.751945  0  .  1
   Fe  Fe3  1  0.250000  0.750000  0.500000  0  .  1
   Fe  Fe4  1  0.750000  0.250000  0.500000  0  .  1
   Tm  Tm5  1  0.000000  0.000000  0.000000  0  .  1
 
