#\#CIF1.1
##########################################################################
#               Crystallographic Information Format file 
#               Produced by PyCifRW module
# 
#  This is a CIF file.  CIF has been adopted by the International
#  Union of Crystallography as the standard for data archiving and 
#  transmission.
#
#  For information on this file format, follow the CIF links at
#  http://www.iucr.org
##########################################################################

data_Tm(SiRh)2
_symmetry_space_group_name_H-M          'P 1'
_cell_length_a                          4.05141812727
_cell_length_b                          4.05141811982
_cell_length_c                          5.73019253328
_cell_angle_alpha                       110.702460155
_cell_angle_beta                        110.70246003
_cell_angle_gamma                       90.0000000538
_chemical_name_systematic               'Generated by pymatgen'
_symmetry_Int_Tables_number             1
_chemical_formula_structural            Tm(SiRh)2
_chemical_formula_sum                   'Tm1 Si2 Rh2'
_cell_volume                            81.4572405009
_cell_formula_units_Z                   1
loop_
  _symmetry_equiv_pos_site_id
  _symmetry_equiv_pos_as_xyz
   1  'x, y, z'
 
loop_
  _atom_site_type_symbol
  _atom_site_label
  _atom_site_symmetry_multiplicity
  _atom_site_fract_x
  _atom_site_fract_y
  _atom_site_fract_z
  _atom_site_attached_hydrogens
  _atom_site_B_iso_or_equiv
  _atom_site_occupancy
   Si  Si1  1  0.620691  0.620691  0.241382  0  .  1
   Si  Si2  1  0.379309  0.379309  0.758618  0  .  1
   Rh  Rh3  1  0.250000  0.750000  0.500000  0  .  1
   Rh  Rh4  1  0.750000  0.250000  0.500000  0  .  1
   Tm  Tm5  1  0.000000  0.000000  0.000000  0  .  1
 
