#\#CIF1.1
##########################################################################
#               Crystallographic Information Format file 
#               Produced by PyCifRW module
# 
#  This is a CIF file.  CIF has been adopted by the International
#  Union of Crystallography as the standard for data archiving and 
#  transmission.
#
#  For information on this file format, follow the CIF links at
#  http://www.iucr.org
##########################################################################

data_U(SiOs)2
_symmetry_space_group_name_H-M          'P 1'
_cell_length_a                          4.14381196951
_cell_length_b                          4.14381197651
_cell_length_c                          5.6232383081
_cell_angle_alpha                       111.620317667
_cell_angle_beta                        111.620317764
_cell_angle_gamma                       89.9999999685
_chemical_name_systematic               'Generated by pymatgen'
_symmetry_Int_Tables_number             1
_chemical_formula_structural            U(SiOs)2
_chemical_formula_sum                   'U1 Si2 Os2'
_cell_volume                            82.4131029404
_cell_formula_units_Z                   1
loop_
  _symmetry_equiv_pos_site_id
  _symmetry_equiv_pos_as_xyz
   1  'x, y, z'
 
loop_
  _atom_site_type_symbol
  _atom_site_label
  _atom_site_symmetry_multiplicity
  _atom_site_fract_x
  _atom_site_fract_y
  _atom_site_fract_z
  _atom_site_attached_hydrogens
  _atom_site_B_iso_or_equiv
  _atom_site_occupancy
   Si  Si1  1  0.623703  0.623703  0.247405  0  .  1
   Si  Si2  1  0.376297  0.376297  0.752595  0  .  1
   Os  Os3  1  0.750000  0.250000  0.500000  0  .  1
   Os  Os4  1  0.250000  0.750000  0.500000  0  .  1
   U  U5  1  0.000000  0.000000  0.000000  0  .  1
 
