#\#CIF1.1
##########################################################################
#               Crystallographic Information Format file 
#               Produced by PyCifRW module
# 
#  This is a CIF file.  CIF has been adopted by the International
#  Union of Crystallography as the standard for data archiving and 
#  transmission.
#
#  For information on this file format, follow the CIF links at
#  http://www.iucr.org
##########################################################################

data_V10O9
_symmetry_space_group_name_H-M          'P 1'
_cell_length_a                          5.31739560297
_cell_length_b                          6.93728511967
_cell_length_c                          6.24378224629
_cell_angle_alpha                       103.218730225
_cell_angle_beta                        106.789722947
_cell_angle_gamma                       97.2368216158
_chemical_name_systematic               'Generated by pymatgen'
_symmetry_Int_Tables_number             1
_chemical_formula_structural            V10O9
_chemical_formula_sum                   'V10 O9'
_cell_volume                            210.056097711
_cell_formula_units_Z                   1
loop_
  _symmetry_equiv_pos_site_id
  _symmetry_equiv_pos_as_xyz
   1  'x, y, z'
 
loop_
  _atom_site_type_symbol
  _atom_site_label
  _atom_site_symmetry_multiplicity
  _atom_site_fract_x
  _atom_site_fract_y
  _atom_site_fract_z
  _atom_site_attached_hydrogens
  _atom_site_B_iso_or_equiv
  _atom_site_occupancy
   V  V1  1  0.007742  0.997054  0.998001  0  .  1
   V  V2  1  0.792811  0.599179  0.100950  0  .  1
   V  V3  1  0.191202  0.402476  0.408788  0  .  1
   V  V4  1  0.612545  0.199999  0.693694  0  .  1
   V  V5  1  0.997309  0.010260  0.501762  0  .  1
   V  V6  1  0.800189  0.586831  0.596332  0  .  1
   V  V7  1  0.185161  0.390699  0.886059  0  .  1
   V  V8  1  0.611636  0.207284  0.211499  0  .  1
   V  V9  1  0.403459  0.800914  0.799737  0  .  1
   V  V10  1  0.396377  0.803392  0.300560  0  .  1
   O  O11  1  0.100944  0.695312  0.948299  0  .  1
   O  O12  1  0.701521  0.901969  0.150105  0  .  1
   O  O13  1  0.298277  0.105936  0.351636  0  .  1
   O  O14  1  0.500075  0.497291  0.751241  0  .  1
   O  O15  1  0.095624  0.706263  0.451237  0  .  1
   O  O16  1  0.703654  0.894349  0.648471  0  .  1
   O  O17  1  0.312575  0.102708  0.852217  0  .  1
   O  O18  1  0.487963  0.499616  0.248227  0  .  1
   O  O19  1  0.900937  0.298471  0.051185  0  .  1
 
