#\#CIF1.1
##########################################################################
#               Crystallographic Information Format file 
#               Produced by PyCifRW module
# 
#  This is a CIF file.  CIF has been adopted by the International
#  Union of Crystallography as the standard for data archiving and 
#  transmission.
#
#  For information on this file format, follow the CIF links at
#  http://www.iucr.org
##########################################################################

data_V16O3
_symmetry_space_group_name_H-M          'P 1'
_cell_length_a                          8.49225375955
_cell_length_b                          9.67190287966
_cell_length_c                          9.67190217096
_cell_angle_alpha                       78.8875209846
_cell_angle_beta                        63.9588379598
_cell_angle_gamma                       63.9588364237
_chemical_name_systematic               'Generated by pymatgen'
_symmetry_Int_Tables_number             1
_chemical_formula_structural            V16O3
_chemical_formula_sum                   'V32 O6'
_cell_volume                            641.301901628
_cell_formula_units_Z                   2
loop_
  _symmetry_equiv_pos_site_id
  _symmetry_equiv_pos_as_xyz
   1  'x, y, z'
 
loop_
  _atom_site_type_symbol
  _atom_site_label
  _atom_site_symmetry_multiplicity
  _atom_site_fract_x
  _atom_site_fract_y
  _atom_site_fract_z
  _atom_site_attached_hydrogens
  _atom_site_B_iso_or_equiv
  _atom_site_occupancy
   V  V1  1  0.250579  0.498841  1.000000  0  .  1
   V  V2  1  0.749421  0.000000  0.501159  0  .  1
   V  V3  1  0.252921  0.747079  0.747079  0  .  1
   V  V4  1  1.000000  0.252921  0.747079  0  .  1
   V  V5  1  0.000000  0.747079  0.252921  0  .  1
   V  V6  1  0.747079  0.252921  0.252921  0  .  1
   V  V7  1  0.251073  0.248927  0.248927  0  .  1
   V  V8  1  0.500000  0.751073  0.248927  0  .  1
   V  V9  1  0.500000  0.248927  0.751073  0  .  1
   V  V10  1  0.748927  0.751073  0.751073  0  .  1
   V  V11  1  0.375141  0.500000  0.249719  0  .  1
   V  V12  1  0.624859  0.750282  0.500000  0  .  1
   V  V13  1  0.875141  0.249719  0.500000  0  .  1
   V  V14  1  0.124859  0.500000  0.750282  0  .  1
   V  V15  1  0.624859  0.500000  0.750282  0  .  1
   V  V16  1  0.375141  0.249719  0.500000  0  .  1
   V  V17  1  0.124859  0.750282  0.500000  0  .  1
   V  V18  1  0.875141  0.500000  0.249719  0  .  1
   V  V19  1  0.381849  1.000000  0.752352  0  .  1
   V  V20  1  0.134202  0.247648  0.000000  0  .  1
   V  V21  1  0.381849  0.752352  1.000000  0  .  1
   V  V22  1  0.134202  1.000000  0.247648  0  .  1
   V  V23  1  0.618151  0.000000  0.247648  0  .  1
   V  V24  1  0.865798  0.000000  0.752352  0  .  1
   V  V25  1  0.618151  0.247648  0.000000  0  .  1
   V  V26  1  0.865798  0.752352  1.000000  0  .  1
   V  V27  1  0.749421  0.501159  0.000000  0  .  1
   V  V28  1  0.250579  1.000000  0.498841  0  .  1
   V  V29  1  0.500000  0.500000  0.500000  0  .  1
   V  V30  1  0.000000  0.500000  0.500000  0  .  1
   V  V31  1  0.500000  0.000000  0.000000  0  .  1
   V  V32  1  0.000000  0.000000  0.000000  0  .  1
   O  O33  1  0.875284  0.000000  0.249432  0  .  1
   O  O34  1  0.124716  0.750568  1.000000  0  .  1
   O  O35  1  0.875284  0.249432  0.000000  0  .  1
   O  O36  1  0.124716  1.000000  0.750568  0  .  1
   O  O37  1  0.750000  0.500000  0.500000  0  .  1
   O  O38  1  0.250000  0.500000  0.500000  0  .  1
 
