#\#CIF1.1
##########################################################################
#               Crystallographic Information Format file 
#               Produced by PyCifRW module
# 
#  This is a CIF file.  CIF has been adopted by the International
#  Union of Crystallography as the standard for data archiving and 
#  transmission.
#
#  For information on this file format, follow the CIF links at
#  http://www.iucr.org
##########################################################################

data_V2Co2O7
_symmetry_space_group_name_H-M          'P 1'
_cell_length_a                          6.71064080142
_cell_length_b                          8.47671649
_cell_length_c                          9.59015690604
_cell_angle_alpha                       90.0
_cell_angle_beta                        100.564476813
_cell_angle_gamma                       90.0
_chemical_name_systematic               'Generated by pymatgen'
_symmetry_Int_Tables_number             1
_chemical_formula_structural            V2Co2O7
_chemical_formula_sum                   'V8 Co8 O28'
_cell_volume                            536.28126142
_cell_formula_units_Z                   4
loop_
  _symmetry_equiv_pos_site_id
  _symmetry_equiv_pos_as_xyz
   1  'x, y, z'
 
loop_
  _atom_site_type_symbol
  _atom_site_label
  _atom_site_symmetry_multiplicity
  _atom_site_fract_x
  _atom_site_fract_y
  _atom_site_fract_z
  _atom_site_attached_hydrogens
  _atom_site_B_iso_or_equiv
  _atom_site_occupancy
   O  O1  1  0.850974  0.120869  0.502825  0  .  1
   O  O2  1  0.149026  0.620869  0.997175  0  .  1
   O  O3  1  0.149026  0.879131  0.497175  0  .  1
   O  O4  1  0.850974  0.379131  0.002825  0  .  1
   O  O5  1  0.030019  0.420455  0.747991  0  .  1
   O  O6  1  0.969981  0.920455  0.752009  0  .  1
   O  O7  1  0.969981  0.579545  0.252009  0  .  1
   O  O8  1  0.030019  0.079545  0.247991  0  .  1
   O  O9  1  0.675088  0.122218  0.848922  0  .  1
   O  O10  1  0.324912  0.622218  0.651078  0  .  1
   O  O11  1  0.324912  0.877782  0.151078  0  .  1
   O  O12  1  0.675088  0.377782  0.348922  0  .  1
   O  O13  1  0.250720  0.144117  0.680963  0  .  1
   O  O14  1  0.749280  0.644117  0.819037  0  .  1
   O  O15  1  0.749280  0.855883  0.319037  0  .  1
   O  O16  1  0.250720  0.355883  0.180963  0  .  1
   O  O17  1  0.608193  0.131716  0.124646  0  .  1
   O  O18  1  0.391807  0.631716  0.375354  0  .  1
   O  O19  1  0.391807  0.868284  0.875354  0  .  1
   O  O20  1  0.608193  0.368284  0.624646  0  .  1
   O  O21  1  0.425825  0.129409  0.395793  0  .  1
   O  O22  1  0.574175  0.629409  0.104207  0  .  1
   O  O23  1  0.574175  0.870591  0.604207  0  .  1
   O  O24  1  0.425825  0.370591  0.895793  0  .  1
   O  O25  1  0.172624  0.368444  0.459499  0  .  1
   O  O26  1  0.827376  0.868444  0.040501  0  .  1
   O  O27  1  0.827376  0.631556  0.540501  0  .  1
   O  O28  1  0.172624  0.131556  0.959499  0  .  1
   V  V29  1  0.194091  0.480231  0.312409  0  .  1
   V  V30  1  0.805909  0.980231  0.187591  0  .  1
   V  V31  1  0.805909  0.519769  0.687591  0  .  1
   V  V32  1  0.194091  0.019769  0.812409  0  .  1
   V  V33  1  0.362496  0.741932  0.031145  0  .  1
   V  V34  1  0.637504  0.241932  0.468855  0  .  1
   V  V35  1  0.637504  0.258068  0.968855  0  .  1
   V  V36  1  0.362496  0.758068  0.531145  0  .  1
   Co  Co37  1  0.303901  0.112196  0.179379  0  .  1
   Co  Co38  1  0.696099  0.612196  0.320621  0  .  1
   Co  Co39  1  0.696099  0.887804  0.820621  0  .  1
   Co  Co40  1  0.303901  0.387804  0.679379  0  .  1
   Co  Co41  1  0.145119  0.378696  0.963190  0  .  1
   Co  Co42  1  0.854881  0.878696  0.536810  0  .  1
   Co  Co43  1  0.854881  0.621304  0.036810  0  .  1
   Co  Co44  1  0.145119  0.121304  0.463190  0  .  1
 
