#\#CIF1.1
##########################################################################
#               Crystallographic Information Format file 
#               Produced by PyCifRW module
# 
#  This is a CIF file.  CIF has been adopted by the International
#  Union of Crystallography as the standard for data archiving and 
#  transmission.
#
#  For information on this file format, follow the CIF links at
#  http://www.iucr.org
##########################################################################

data_V2CoO4
_symmetry_space_group_name_H-M          'P 1'
_cell_length_a                          6.07751238796
_cell_length_b                          6.07751249897
_cell_length_c                          6.07751211506
_cell_angle_alpha                       120.666337526
_cell_angle_beta                        120.666342394
_cell_angle_gamma                       88.8496869826
_chemical_name_systematic               'Generated by pymatgen'
_symmetry_Int_Tables_number             1
_chemical_formula_structural            V2CoO4
_chemical_formula_sum                   'V4 Co2 O8'
_cell_volume                            157.098254519
_cell_formula_units_Z                   2
loop_
  _symmetry_equiv_pos_site_id
  _symmetry_equiv_pos_as_xyz
   1  'x, y, z'
 
loop_
  _atom_site_type_symbol
  _atom_site_label
  _atom_site_symmetry_multiplicity
  _atom_site_fract_x
  _atom_site_fract_y
  _atom_site_fract_z
  _atom_site_attached_hydrogens
  _atom_site_B_iso_or_equiv
  _atom_site_occupancy
   V  V1  1  0.000000  0.500000  0.500000  0  .  1
   V  V2  1  0.500000  0.500000  0.500000  0  .  1
   V  V3  1  0.500000  0.500000  0.000000  0  .  1
   V  V4  1  0.500000  0.000000  0.000000  0  .  1
   Co  Co5  1  0.125000  0.875000  0.250000  0  .  1
   Co  Co6  1  0.875000  0.125000  0.750000  0  .  1
   O  O7  1  0.259081  0.737479  0.978398  0  .  1
   O  O8  1  0.262521  0.740919  0.521602  0  .  1
   O  O9  1  0.259081  0.280684  0.521602  0  .  1
   O  O10  1  0.719316  0.740919  0.978398  0  .  1
   O  O11  1  0.280684  0.259081  0.021602  0  .  1
   O  O12  1  0.740919  0.719316  0.478398  0  .  1
   O  O13  1  0.737479  0.259081  0.478398  0  .  1
   O  O14  1  0.740919  0.262521  0.021602  0  .  1
 
