#\#CIF1.1
##########################################################################
#               Crystallographic Information Format file 
#               Produced by PyCifRW module
# 
#  This is a CIF file.  CIF has been adopted by the International
#  Union of Crystallography as the standard for data archiving and 
#  transmission.
#
#  For information on this file format, follow the CIF links at
#  http://www.iucr.org
##########################################################################

data_V2CrO7
_symmetry_space_group_name_H-M          'P 1'
_cell_length_a                          8.63583861
_cell_length_b                          8.63583861
_cell_length_c                          8.63583861
_cell_angle_alpha                       90.0
_cell_angle_beta                        90.0
_cell_angle_gamma                       90.0
_chemical_name_systematic               'Generated by pymatgen'
_symmetry_Int_Tables_number             1
_chemical_formula_structural            V2CrO7
_chemical_formula_sum                   'V8 Cr4 O28'
_cell_volume                            644.041054492
_cell_formula_units_Z                   4
loop_
  _symmetry_equiv_pos_site_id
  _symmetry_equiv_pos_as_xyz
   1  'x, y, z'
 
loop_
  _atom_site_type_symbol
  _atom_site_label
  _atom_site_symmetry_multiplicity
  _atom_site_fract_x
  _atom_site_fract_y
  _atom_site_fract_z
  _atom_site_attached_hydrogens
  _atom_site_B_iso_or_equiv
  _atom_site_occupancy
   V  V1  1  0.119152  0.880848  0.380848  0  .  1
   V  V2  1  0.119152  0.619152  0.880848  0  .  1
   V  V3  1  0.380848  0.380848  0.380848  0  .  1
   V  V4  1  0.380848  0.119152  0.880848  0  .  1
   V  V5  1  0.619152  0.619152  0.619152  0  .  1
   V  V6  1  0.619152  0.880848  0.119152  0  .  1
   V  V7  1  0.880848  0.119152  0.619152  0  .  1
   V  V8  1  0.880848  0.380848  0.119152  0  .  1
   Cr  Cr9  1  0.000000  0.000000  0.000000  0  .  1
   Cr  Cr10  1  0.000000  0.500000  0.500000  0  .  1
   Cr  Cr11  1  0.500000  0.000000  0.500000  0  .  1
   Cr  Cr12  1  0.500000  0.500000  0.000000  0  .  1
   O  O13  1  0.000000  0.000000  0.500000  0  .  1
   O  O14  1  0.000000  0.500000  0.000000  0  .  1
   O  O15  1  0.062440  0.691916  0.407494  0  .  1
   O  O16  1  0.062440  0.808084  0.907494  0  .  1
   O  O17  1  0.092506  0.562440  0.691916  0  .  1
   O  O18  1  0.092506  0.937560  0.191916  0  .  1
   O  O19  1  0.191916  0.092506  0.937560  0  .  1
   O  O20  1  0.191916  0.407494  0.437560  0  .  1
   O  O21  1  0.308084  0.592506  0.937560  0  .  1
   O  O22  1  0.308084  0.907494  0.437560  0  .  1
   O  O23  1  0.407494  0.062440  0.691916  0  .  1
   O  O24  1  0.407494  0.437560  0.191916  0  .  1
   O  O25  1  0.437560  0.308084  0.907494  0  .  1
   O  O26  1  0.437560  0.191916  0.407494  0  .  1
   O  O27  1  0.500000  0.500000  0.500000  0  .  1
   O  O28  1  0.500000  0.000000  0.000000  0  .  1
   O  O29  1  0.562440  0.691916  0.092506  0  .  1
   O  O30  1  0.562440  0.808084  0.592506  0  .  1
   O  O31  1  0.592506  0.562440  0.808084  0  .  1
   O  O32  1  0.592506  0.937560  0.308084  0  .  1
   O  O33  1  0.691916  0.092506  0.562440  0  .  1
   O  O34  1  0.691916  0.407494  0.062440  0  .  1
   O  O35  1  0.808084  0.592506  0.562440  0  .  1
   O  O36  1  0.808084  0.907494  0.062440  0  .  1
   O  O37  1  0.907494  0.062440  0.808084  0  .  1
   O  O38  1  0.907494  0.437560  0.308084  0  .  1
   O  O39  1  0.937560  0.191916  0.092506  0  .  1
   O  O40  1  0.937560  0.308084  0.592506  0  .  1
 
