#\#CIF1.1
##########################################################################
#               Crystallographic Information Format file 
#               Produced by PyCifRW module
# 
#  This is a CIF file.  CIF has been adopted by the International
#  Union of Crystallography as the standard for data archiving and 
#  transmission.
#
#  For information on this file format, follow the CIF links at
#  http://www.iucr.org
##########################################################################

data_V2Cu2O7
_symmetry_space_group_name_H-M          'P 1'
_cell_length_a                          6.65393599816
_cell_length_b                          6.65393589075
_cell_length_c                          6.77188983181
_cell_angle_alpha                       105.587636456
_cell_angle_beta                        105.587636094
_cell_angle_gamma                       101.054651943
_chemical_name_systematic               'Generated by pymatgen'
_symmetry_Int_Tables_number             1
_chemical_formula_structural            V2Cu2O7
_chemical_formula_sum                   'V4 Cu4 O14'
_cell_volume                            266.680559652
_cell_formula_units_Z                   2
loop_
  _symmetry_equiv_pos_site_id
  _symmetry_equiv_pos_as_xyz
   1  'x, y, z'
 
loop_
  _atom_site_type_symbol
  _atom_site_label
  _atom_site_symmetry_multiplicity
  _atom_site_fract_x
  _atom_site_fract_y
  _atom_site_fract_z
  _atom_site_attached_hydrogens
  _atom_site_B_iso_or_equiv
  _atom_site_occupancy
   V  V1  1  0.246281  0.644665  0.117881  0  .  1
   V  V2  1  0.144665  0.746281  0.617881  0  .  1
   V  V3  1  0.855335  0.253719  0.382119  0  .  1
   V  V4  1  0.753719  0.355335  0.882119  0  .  1
   Cu  Cu5  1  0.606956  0.800123  0.977368  0  .  1
   Cu  Cu6  1  0.300123  0.106956  0.477368  0  .  1
   Cu  Cu7  1  0.699877  0.893044  0.522632  0  .  1
   Cu  Cu8  1  0.393044  0.199877  0.022632  0  .  1
   O  O9  1  0.191579  0.782752  0.366944  0  .  1
   O  O10  1  0.717248  0.308421  0.133056  0  .  1
   O  O11  1  0.871307  0.624147  0.954561  0  .  1
   O  O12  1  0.124147  0.371307  0.454561  0  .  1
   O  O13  1  0.169230  0.019330  0.732722  0  .  1
   O  O14  1  0.875853  0.628693  0.545439  0  .  1
   O  O15  1  0.128693  0.375853  0.045439  0  .  1
   O  O16  1  0.282752  0.691579  0.866944  0  .  1
   O  O17  1  0.808421  0.217248  0.633056  0  .  1
   O  O18  1  0.411910  0.088090  0.250000  0  .  1
   O  O19  1  0.519330  0.669230  0.232722  0  .  1
   O  O20  1  0.480670  0.330770  0.767278  0  .  1
   O  O21  1  0.588090  0.911910  0.750000  0  .  1
   O  O22  1  0.830770  0.980670  0.267278  0  .  1
 
