#\#CIF1.1
##########################################################################
#               Crystallographic Information Format file 
#               Produced by PyCifRW module
# 
#  This is a CIF file.  CIF has been adopted by the International
#  Union of Crystallography as the standard for data archiving and 
#  transmission.
#
#  For information on this file format, follow the CIF links at
#  http://www.iucr.org
##########################################################################

data_V2Cu3O8
_symmetry_space_group_name_H-M          'P 1'
_cell_length_a                          5.13805029547
_cell_length_b                          5.78182977878
_cell_length_c                          6.58290439364
_cell_angle_alpha                       70.0294129641
_cell_angle_beta                        87.3680367742
_cell_angle_gamma                       67.5869969322
_chemical_name_systematic               'Generated by pymatgen'
_symmetry_Int_Tables_number             1
_chemical_formula_structural            V2Cu3O8
_chemical_formula_sum                   'V2 Cu3 O8'
_cell_volume                            169.115014178
_cell_formula_units_Z                   1
loop_
  _symmetry_equiv_pos_site_id
  _symmetry_equiv_pos_as_xyz
   1  'x, y, z'
 
loop_
  _atom_site_type_symbol
  _atom_site_label
  _atom_site_symmetry_multiplicity
  _atom_site_fract_x
  _atom_site_fract_y
  _atom_site_fract_z
  _atom_site_attached_hydrogens
  _atom_site_B_iso_or_equiv
  _atom_site_occupancy
   O  O1  1  0.621668  0.871330  0.372683  0  .  1
   O  O2  1  0.378332  0.128670  0.627318  0  .  1
   O  O3  1  0.783792  0.805928  0.962797  0  .  1
   O  O4  1  0.216207  0.194074  0.037203  0  .  1
   O  O5  1  0.684501  0.331816  0.844928  0  .  1
   O  O6  1  0.865379  0.352050  0.347978  0  .  1
   O  O7  1  0.315499  0.668182  0.155071  0  .  1
   O  O8  1  0.134621  0.647951  0.652020  0  .  1
   V  V9  1  0.640027  0.671741  0.210501  0  .  1
   V  V10  1  0.359972  0.328260  0.789499  0  .  1
   Cu  Cu11  1  0.739098  0.825712  0.664913  0  .  1
   Cu  Cu12  1  0.260902  0.174289  0.335087  0  .  1
   Cu  Cu13  1  -0.000000  -0.000000  0.000000  0  .  1
 
