#\#CIF1.1
##########################################################################
#               Crystallographic Information Format file 
#               Produced by PyCifRW module
# 
#  This is a CIF file.  CIF has been adopted by the International
#  Union of Crystallography as the standard for data archiving and 
#  transmission.
#
#  For information on this file format, follow the CIF links at
#  http://www.iucr.org
##########################################################################

data_V2CuO6
_symmetry_space_group_name_H-M          'P 1'
_cell_length_a                          4.92908451372
_cell_length_b                          5.10027388421
_cell_length_c                          6.60280203067
_cell_angle_alpha                       73.5399913925
_cell_angle_beta                        109.432862777
_cell_angle_gamma                       138.032731441
_chemical_name_systematic               'Generated by pymatgen'
_symmetry_Int_Tables_number             1
_chemical_formula_structural            V2CuO6
_chemical_formula_sum                   'V2 Cu1 O6'
_cell_volume                            104.506158587
_cell_formula_units_Z                   1
loop_
  _symmetry_equiv_pos_site_id
  _symmetry_equiv_pos_as_xyz
   1  'x, y, z'
 
loop_
  _atom_site_type_symbol
  _atom_site_label
  _atom_site_symmetry_multiplicity
  _atom_site_fract_x
  _atom_site_fract_y
  _atom_site_fract_z
  _atom_site_attached_hydrogens
  _atom_site_B_iso_or_equiv
  _atom_site_occupancy
   V  V1  1  0.789075  0.179128  0.342122  0  .  1
   V  V2  1  0.210925  0.820872  0.657878  0  .  1
   Cu  Cu3  1  0.000000  0.000000  0.000000  0  .  1
   O  O4  1  0.965072  0.031329  0.271765  0  .  1
   O  O5  1  0.034928  0.968671  0.728235  0  .  1
   O  O6  1  0.590451  0.280325  0.109709  0  .  1
   O  O7  1  0.409549  0.719675  0.890291  0  .  1
   O  O8  1  0.699816  0.308056  0.570641  0  .  1
   O  O9  1  0.300184  0.691944  0.429359  0  .  1
 
