#\#CIF1.1
##########################################################################
#               Crystallographic Information Format file 
#               Produced by PyCifRW module
# 
#  This is a CIF file.  CIF has been adopted by the International
#  Union of Crystallography as the standard for data archiving and 
#  transmission.
#
#  For information on this file format, follow the CIF links at
#  http://www.iucr.org
##########################################################################

data_V2Ni3O8
_symmetry_space_group_name_H-M          'P 1'
_cell_length_a                          5.99891256
_cell_length_b                          6.50560153526
_cell_length_c                          8.3576383
_cell_angle_alpha                       90.0
_cell_angle_beta                        90.0
_cell_angle_gamma                       117.455366129
_chemical_name_systematic               'Generated by pymatgen'
_symmetry_Int_Tables_number             1
_chemical_formula_structural            V2Ni3O8
_chemical_formula_sum                   'V4 Ni6 O16'
_cell_volume                            289.433260662
_cell_formula_units_Z                   2
loop_
  _symmetry_equiv_pos_site_id
  _symmetry_equiv_pos_as_xyz
   1  'x, y, z'
 
loop_
  _atom_site_type_symbol
  _atom_site_label
  _atom_site_symmetry_multiplicity
  _atom_site_fract_x
  _atom_site_fract_y
  _atom_site_fract_z
  _atom_site_attached_hydrogens
  _atom_site_B_iso_or_equiv
  _atom_site_occupancy
   O  O1  1  0.116197  0.763219  0.497935  0  .  1
   O  O2  1  0.352976  0.236780  0.502065  0  .  1
   O  O3  1  0.383803  0.236780  0.997935  0  .  1
   O  O4  1  0.147024  0.763219  0.002065  0  .  1
   O  O5  1  0.883803  0.236780  0.502065  0  .  1
   O  O6  1  0.647023  0.763219  0.497935  0  .  1
   O  O7  1  0.616196  0.763219  0.002065  0  .  1
   O  O8  1  0.852977  0.236780  0.997935  0  .  1
   O  O9  1  0.499727  0.999453  0.745172  0  .  1
   O  O10  1  0.500274  0.000546  0.254827  0  .  1
   O  O11  1  0.248125  0.496249  0.770811  0  .  1
   O  O12  1  0.751876  0.503750  0.229189  0  .  1
   O  O13  1  0.251875  0.503750  0.270811  0  .  1
   O  O14  1  0.000273  0.000546  0.245172  0  .  1
   O  O15  1  0.999727  0.999453  0.754827  0  .  1
   O  O16  1  0.748125  0.496249  0.729189  0  .  1
   V  V17  1  0.876222  0.752444  0.618331  0  .  1
   V  V18  1  0.123778  0.247556  0.381669  0  .  1
   V  V19  1  0.623778  0.247556  0.118331  0  .  1
   V  V20  1  0.376222  0.752444  0.881669  0  .  1
   Ni  Ni21  1  0.119776  0.739552  0.249999  0  .  1
   Ni  Ni22  1  0.380224  0.260448  0.750000  0  .  1
   Ni  Ni23  1  0.619776  0.739552  0.249999  0  .  1
   Ni  Ni24  1  0.880225  0.260448  0.750000  0  .  1
   Ni  Ni25  1  0.500001  0.000000  0.500000  0  .  1
   Ni  Ni26  1  0.000000  0.000000  0.000000  0  .  1
 
