#\#CIF1.1
##########################################################################
#               Crystallographic Information Format file 
#               Produced by PyCifRW module
# 
#  This is a CIF file.  CIF has been adopted by the International
#  Union of Crystallography as the standard for data archiving and 
#  transmission.
#
#  For information on this file format, follow the CIF links at
#  http://www.iucr.org
##########################################################################

data_V2ZnO4
_symmetry_space_group_name_H-M          'P 1'
_cell_length_a                          6.06792514333
_cell_length_b                          6.06571882161
_cell_length_c                          6.06985850548
_cell_angle_alpha                       89.6847323493
_cell_angle_beta                        120.102062957
_cell_angle_gamma                       120.323738852
_chemical_name_systematic               'Generated by pymatgen'
_symmetry_Int_Tables_number             1
_chemical_formula_structural            V2ZnO4
_chemical_formula_sum                   'V4 Zn2 O8'
_cell_volume                            157.389039818
_cell_formula_units_Z                   2
loop_
  _symmetry_equiv_pos_site_id
  _symmetry_equiv_pos_as_xyz
   1  'x, y, z'
 
loop_
  _atom_site_type_symbol
  _atom_site_label
  _atom_site_symmetry_multiplicity
  _atom_site_fract_x
  _atom_site_fract_y
  _atom_site_fract_z
  _atom_site_attached_hydrogens
  _atom_site_B_iso_or_equiv
  _atom_site_occupancy
   O  O1  1  0.023828  0.742393  0.258892  0  .  1
   O  O2  1  0.483605  0.743727  0.718661  0  .  1
   O  O3  1  0.474967  0.730702  0.256256  0  .  1
   O  O4  1  0.983278  0.719346  0.735079  0  .  1
   O  O5  1  0.525035  0.269300  0.743745  0  .  1
   O  O6  1  0.516394  0.256273  0.281337  0  .  1
   O  O7  1  0.016724  0.280655  0.264922  0  .  1
   O  O8  1  0.976174  0.257608  0.741109  0  .  1
   V  V9  1  0.499995  -0.000007  0.499999  0  .  1
   V  V10  1  0.499999  0.500002  0.500000  0  .  1
   V  V11  1  0.000002  0.500002  0.000002  0  .  1
   V  V12  1  -0.000002  0.499998  0.499999  0  .  1
   Zn  Zn13  1  0.249910  0.124935  0.875065  0  .  1
   Zn  Zn14  1  0.750092  0.875067  0.124934  0  .  1
 
