#\#CIF1.1
##########################################################################
#               Crystallographic Information Format file 
#               Produced by PyCifRW module
# 
#  This is a CIF file.  CIF has been adopted by the International
#  Union of Crystallography as the standard for data archiving and 
#  transmission.
#
#  For information on this file format, follow the CIF links at
#  http://www.iucr.org
##########################################################################

data_V2ZnO6
_symmetry_space_group_name_H-M          'P 1'
_cell_length_a                          3.55242939085
_cell_length_b                          5.06438992962
_cell_length_c                          6.79462761875
_cell_angle_alpha                       107.302916701
_cell_angle_beta                        90.0004010908
_cell_angle_gamma                       110.533963153
_chemical_name_systematic               'Generated by pymatgen'
_symmetry_Int_Tables_number             1
_chemical_formula_structural            V2ZnO6
_chemical_formula_sum                   'V2 Zn1 O6'
_cell_volume                            108.547556029
_cell_formula_units_Z                   1
loop_
  _symmetry_equiv_pos_site_id
  _symmetry_equiv_pos_as_xyz
   1  'x, y, z'
 
loop_
  _atom_site_type_symbol
  _atom_site_label
  _atom_site_symmetry_multiplicity
  _atom_site_fract_x
  _atom_site_fract_y
  _atom_site_fract_z
  _atom_site_attached_hydrogens
  _atom_site_B_iso_or_equiv
  _atom_site_occupancy
   Zn  Zn1  1  0.000000  0.000000  0.000000  0  .  1
   V  V2  1  0.202219  0.404425  0.664665  0  .  1
   V  V3  1  0.797781  0.595575  0.335335  0  .  1
   O  O4  1  0.045267  0.090522  0.735745  0  .  1
   O  O5  1  0.954733  0.909478  0.264255  0  .  1
   O  O6  1  0.348735  0.697498  0.886166  0  .  1
   O  O7  1  0.651265  0.302502  0.113834  0  .  1
   O  O8  1  0.301682  0.603347  0.429131  0  .  1
   O  O9  1  0.698318  0.396653  0.570869  0  .  1
 
