#\#CIF1.1
##########################################################################
#               Crystallographic Information Format file 
#               Produced by PyCifRW module
# 
#  This is a CIF file.  CIF has been adopted by the International
#  Union of Crystallography as the standard for data archiving and 
#  transmission.
#
#  For information on this file format, follow the CIF links at
#  http://www.iucr.org
##########################################################################

data_V2Zn4O9
_symmetry_space_group_name_H-M          'P 1'
_cell_length_a                          8.30006683
_cell_length_b                          9.84015822924
_cell_length_c                          10.5146435602
_cell_angle_alpha                       117.208928758
_cell_angle_beta                        90.0
_cell_angle_gamma                       90.0
_chemical_name_systematic               'Generated by pymatgen'
_symmetry_Int_Tables_number             1
_chemical_formula_structural            V2Zn4O9
_chemical_formula_sum                   'V8 Zn16 O36'
_cell_volume                            763.745311808
_cell_formula_units_Z                   4
loop_
  _symmetry_equiv_pos_site_id
  _symmetry_equiv_pos_as_xyz
   1  'x, y, z'
 
loop_
  _atom_site_type_symbol
  _atom_site_label
  _atom_site_symmetry_multiplicity
  _atom_site_fract_x
  _atom_site_fract_y
  _atom_site_fract_z
  _atom_site_attached_hydrogens
  _atom_site_B_iso_or_equiv
  _atom_site_occupancy
   O  O1  1  0.073773  0.134262  0.942915  0  .  1
   O  O2  1  0.573773  0.865737  0.057085  0  .  1
   O  O3  1  0.703134  0.588280  0.120570  0  .  1
   O  O4  1  0.203134  0.411720  0.879430  0  .  1
   O  O5  1  0.734369  0.075688  0.873974  0  .  1
   O  O6  1  0.234368  0.924313  0.126027  0  .  1
   O  O7  1  0.930121  0.653825  0.952066  0  .  1
   O  O8  1  0.430121  0.346175  0.047935  0  .  1
   O  O9  1  0.384927  0.501382  0.539296  0  .  1
   O  O10  1  0.884927  0.498618  0.460705  0  .  1
   O  O11  1  0.688886  0.385650  0.610063  0  .  1
   O  O12  1  0.188885  0.614350  0.389937  0  .  1
   O  O13  1  0.829403  0.324049  0.151443  0  .  1
   O  O14  1  0.329402  0.675951  0.848557  0  .  1
   O  O15  1  0.015539  0.777527  0.763831  0  .  1
   O  O16  1  0.840657  0.815082  0.490455  0  .  1
   O  O17  1  0.667543  0.742737  0.745859  0  .  1
   O  O18  1  0.167543  0.257263  0.254140  0  .  1
   O  O19  1  0.869298  0.012335  0.079539  0  .  1
   O  O20  1  0.369298  0.987664  0.920460  0  .  1
   O  O21  1  0.360194  0.868153  0.398013  0  .  1
   O  O22  1  0.860193  0.131848  0.601987  0  .  1
   O  O23  1  0.034642  0.395904  0.640898  0  .  1
   O  O24  1  0.534642  0.604096  0.359102  0  .  1
   O  O25  1  0.867169  0.185949  0.365331  0  .  1
   O  O26  1  0.367169  0.814052  0.634669  0  .  1
   O  O27  1  0.530998  0.445517  0.844009  0  .  1
   O  O28  1  0.030999  0.554482  0.155991  0  .  1
   O  O29  1  0.026294  0.921377  0.331835  0  .  1
   O  O30  1  0.526295  0.078622  0.668165  0  .  1
   O  O31  1  0.679196  0.941136  0.337944  0  .  1
   O  O32  1  0.179196  0.058863  0.662056  0  .  1
   O  O33  1  0.362750  0.654246  0.114468  0  .  1
   O  O34  1  0.862750  0.345753  0.885532  0  .  1
   O  O35  1  0.515539  0.222473  0.236170  0  .  1
   O  O36  1  0.340657  0.184919  0.509544  0  .  1
   V  V37  1  0.377571  0.853564  0.996118  0  .  1
   V  V38  1  0.877570  0.146436  0.003881  0  .  1
   V  V39  1  0.353574  0.041973  0.556407  0  .  1
   V  V40  1  0.853575  0.958028  0.443593  0  .  1
   V  V41  1  0.380879  0.466351  0.970019  0  .  1
   V  V42  1  0.880879  0.533649  0.029982  0  .  1
   V  V43  1  0.369903  0.640672  0.478905  0  .  1
   V  V44  1  0.869903  0.359327  0.521095  0  .  1
   Zn  Zn45  1  0.352944  0.285898  0.389946  0  .  1
   Zn  Zn46  1  0.312713  0.192408  0.085357  0  .  1
   Zn  Zn47  1  0.029027  0.439799  0.281094  0  .  1
   Zn  Zn48  1  0.529027  0.560202  0.718906  0  .  1
   Zn  Zn49  1  0.812713  0.807591  0.914643  0  .  1
   Zn  Zn50  1  0.852944  0.714101  0.610053  0  .  1
   Zn  Zn51  1  0.667235  0.065538  0.227283  0  .  1
   Zn  Zn52  1  0.167235  0.934463  0.772717  0  .  1
   Zn  Zn53  1  0.175942  0.740333  0.261727  0  .  1
   Zn  Zn54  1  0.675942  0.259666  0.738272  0  .  1
   Zn  Zn55  1  0.104332  0.601514  0.790290  0  .  1
   Zn  Zn56  1  0.604332  0.398487  0.209710  0  .  1
   Zn  Zn57  1  0.549967  0.748299  0.258944  0  .  1
   Zn  Zn58  1  0.049968  0.251701  0.741057  0  .  1
   Zn  Zn59  1  0.053921  0.063418  0.234787  0  .  1
   Zn  Zn60  1  0.553922  0.936582  0.765214  0  .  1
 
