#\#CIF1.1
##########################################################################
#               Crystallographic Information Format file 
#               Produced by PyCifRW module
# 
#  This is a CIF file.  CIF has been adopted by the International
#  Union of Crystallography as the standard for data archiving and 
#  transmission.
#
#  For information on this file format, follow the CIF links at
#  http://www.iucr.org
##########################################################################

data_V3CoO8
_symmetry_space_group_name_H-M          'P 1'
_cell_length_a                          8.34562429236
_cell_length_b                          8.33580649414
_cell_length_c                          8.3424414126
_cell_angle_alpha                       90.0081676347
_cell_angle_beta                        89.9952077349
_cell_angle_gamma                       90.3167321875
_chemical_name_systematic               'Generated by pymatgen'
_symmetry_Int_Tables_number             1
_chemical_formula_structural            V3CoO8
_chemical_formula_sum                   'V12 Co4 O32'
_cell_volume                            580.353993983
_cell_formula_units_Z                   4
loop_
  _symmetry_equiv_pos_site_id
  _symmetry_equiv_pos_as_xyz
   1  'x, y, z'
 
loop_
  _atom_site_type_symbol
  _atom_site_label
  _atom_site_symmetry_multiplicity
  _atom_site_fract_x
  _atom_site_fract_y
  _atom_site_fract_z
  _atom_site_attached_hydrogens
  _atom_site_B_iso_or_equiv
  _atom_site_occupancy
   V  V1  1  0.105589  0.623176  0.129731  0  .  1
   V  V2  1  0.125712  0.378932  0.882822  0  .  1
   V  V3  1  0.132726  0.101757  0.636486  0  .  1
   V  V4  1  0.367802  0.898394  0.136476  0  .  1
   V  V5  1  0.374124  0.620918  0.382121  0  .  1
   V  V6  1  0.393986  0.377472  0.630077  0  .  1
   V  V7  1  0.606564  0.872926  0.878646  0  .  1
   V  V8  1  0.643180  0.126303  0.108899  0  .  1
   V  V9  1  0.631395  0.389621  0.368667  0  .  1
   V  V10  1  0.868213  0.610648  0.868230  0  .  1
   V  V11  1  0.857176  0.874074  0.608566  0  .  1
   V  V12  1  0.893420  0.127231  0.378716  0  .  1
   Co  Co13  1  0.004552  0.497572  0.504988  0  .  1
   Co  Co14  1  0.495577  0.502148  0.005057  0  .  1
   Co  Co15  1  0.501289  0.007038  0.493529  0  .  1
   Co  Co16  1  0.998886  0.992832  0.993597  0  .  1
   O  O17  1  0.098947  0.138581  0.399786  0  .  1
   O  O18  1  0.109498  0.899808  0.632838  0  .  1
   O  O19  1  0.105906  0.616171  0.890411  0  .  1
   O  O20  1  0.134374  0.399388  0.095739  0  .  1
   O  O21  1  0.116151  0.140370  0.853366  0  .  1
   O  O22  1  0.137306  0.363960  0.642865  0  .  1
   O  O23  1  0.133646  0.613517  0.345695  0  .  1
   O  O24  1  0.150286  0.855997  0.111467  0  .  1
   O  O25  1  0.349822  0.143944  0.611229  0  .  1
   O  O26  1  0.366401  0.386010  0.845944  0  .  1
   O  O27  1  0.362888  0.635760  0.142855  0  .  1
   O  O28  1  0.384045  0.859396  0.353349  0  .  1
   O  O29  1  0.365242  0.600427  0.595623  0  .  1
   O  O30  1  0.394316  0.383709  0.390088  0  .  1
   O  O31  1  0.390277  0.100277  0.133020  0  .  1
   O  O32  1  0.401043  0.861388  0.899848  0  .  1
   O  O33  1  0.598834  0.365394  0.605618  0  .  1
   O  O34  1  0.611478  0.595193  0.364762  0  .  1
   O  O35  1  0.608906  0.897009  0.116813  0  .  1
   O  O36  1  0.632040  0.112083  0.904149  0  .  1
   O  O37  1  0.610964  0.349199  0.143783  0  .  1
   O  O38  1  0.642890  0.137959  0.360892  0  .  1
   O  O39  1  0.642632  0.884858  0.639538  0  .  1
   O  O40  1  0.652635  0.634065  0.888831  0  .  1
   O  O41  1  0.847041  0.365849  0.389219  0  .  1
   O  O42  1  0.857672  0.115327  0.139524  0  .  1
   O  O43  1  0.857095  0.861769  0.861247  0  .  1
   O  O44  1  0.889279  0.650868  0.643726  0  .  1
   O  O45  1  0.867924  0.887847  0.403878  0  .  1
   O  O46  1  0.891029  0.102985  0.616885  0  .  1
   O  O47  1  0.888390  0.405151  0.864790  0  .  1
   O  O48  1  0.900852  0.634779  0.105692  0  .  1
 
