#\#CIF1.1
##########################################################################
#               Crystallographic Information Format file 
#               Produced by PyCifRW module
# 
#  This is a CIF file.  CIF has been adopted by the International
#  Union of Crystallography as the standard for data archiving and 
#  transmission.
#
#  For information on this file format, follow the CIF links at
#  http://www.iucr.org
##########################################################################

data_V3Co5O16
_symmetry_space_group_name_H-M          'P 1'
_cell_length_a                          5.64769794699
_cell_length_b                          5.71537044603
_cell_length_c                          8.79226269385
_cell_angle_alpha                       89.9999855386
_cell_angle_beta                        90.3156904537
_cell_angle_gamma                       120.394587618
_chemical_name_systematic               'Generated by pymatgen'
_symmetry_Int_Tables_number             1
_chemical_formula_structural            V3Co5O16
_chemical_formula_sum                   'V3 Co5 O16'
_cell_volume                            244.792267318
_cell_formula_units_Z                   1
loop_
  _symmetry_equiv_pos_site_id
  _symmetry_equiv_pos_as_xyz
   1  'x, y, z'
 
loop_
  _atom_site_type_symbol
  _atom_site_label
  _atom_site_symmetry_multiplicity
  _atom_site_fract_x
  _atom_site_fract_y
  _atom_site_fract_z
  _atom_site_attached_hydrogens
  _atom_site_B_iso_or_equiv
  _atom_site_occupancy
   V  V1  1  0.695447  0.847734  0.212586  0  .  1
   V  V2  1  0.842852  0.673095  0.709131  0  .  1
   V  V3  1  0.843044  0.169658  0.709330  0  .  1
   Co  Co4  1  0.173470  0.832917  0.207006  0  .  1
   Co  Co5  1  0.328035  0.664020  0.477113  0  .  1
   Co  Co6  1  0.173493  0.340558  0.206999  0  .  1
   Co  Co7  1  0.338270  0.169190  0.711600  0  .  1
   Co  Co8  1  0.661006  0.330518  0.983611  0  .  1
   O  O9  1  0.153768  0.814622  0.600345  0  .  1
   O  O10  1  0.043561  0.521791  0.330932  0  .  1
   O  O11  1  0.335659  0.667853  0.100046  0  .  1
   O  O12  1  0.007460  0.003744  0.326397  0  .  1
   O  O13  1  0.996341  0.998163  0.824424  0  .  1
   O  O14  1  0.153731  0.339238  0.600343  0  .  1
   O  O15  1  0.476905  0.954275  0.338277  0  .  1
   O  O16  1  0.476877  0.522628  0.338271  0  .  1
   O  O17  1  0.327009  0.163537  0.104294  0  .  1
   O  O18  1  0.656081  0.828051  0.606245  0  .  1
   O  O19  1  0.522055  0.475431  0.839378  0  .  1
   O  O20  1  0.522080  0.046709  0.839348  0  .  1
   O  O21  1  0.668006  0.334067  0.598017  0  .  1
   O  O22  1  0.823901  0.659823  0.103642  0  .  1
   O  O23  1  0.957053  0.478505  0.844729  0  .  1
   O  O24  1  0.823895  0.164077  0.103655  0  .  1
 
