#\#CIF1.1
##########################################################################
#               Crystallographic Information Format file 
#               Produced by PyCifRW module
# 
#  This is a CIF file.  CIF has been adopted by the International
#  Union of Crystallography as the standard for data archiving and 
#  transmission.
#
#  For information on this file format, follow the CIF links at
#  http://www.iucr.org
##########################################################################

data_V3CrO10
_symmetry_space_group_name_H-M          'P 1'
_cell_length_a                          6.59807257045
_cell_length_b                          6.5985604903
_cell_length_c                          4.46643108029
_cell_angle_alpha                       89.999253946
_cell_angle_beta                        89.9989318517
_cell_angle_gamma                       90.0008065969
_chemical_name_systematic               'Generated by pymatgen'
_symmetry_Int_Tables_number             1
_chemical_formula_structural            V3CrO10
_chemical_formula_sum                   'V3 Cr1 O10'
_cell_volume                            194.458498046
_cell_formula_units_Z                   1
loop_
  _symmetry_equiv_pos_site_id
  _symmetry_equiv_pos_as_xyz
   1  'x, y, z'
 
loop_
  _atom_site_type_symbol
  _atom_site_label
  _atom_site_symmetry_multiplicity
  _atom_site_fract_x
  _atom_site_fract_y
  _atom_site_fract_z
  _atom_site_attached_hydrogens
  _atom_site_B_iso_or_equiv
  _atom_site_occupancy
   V  V1  1  0.250003  0.250005  0.620826  0  .  1
   V  V2  1  0.749988  0.749999  0.379186  0  .  1
   V  V3  1  0.750006  0.249999  0.500005  0  .  1
   Cr  Cr4  1  0.250000  0.749993  0.500013  0  .  1
   O  O5  1  0.033931  0.750001  0.282124  0  .  1
   O  O6  1  0.250003  0.249998  0.259220  0  .  1
   O  O7  1  0.249999  0.533928  0.717853  0  .  1
   O  O8  1  0.250001  0.966083  0.717868  0  .  1
   O  O9  1  0.466051  0.750001  0.282156  0  .  1
   O  O10  1  0.531164  0.249998  0.717916  0  .  1
   O  O11  1  0.750007  0.031174  0.282096  0  .  1
   O  O12  1  0.750005  0.468826  0.282097  0  .  1
   O  O13  1  0.750004  0.750000  0.740721  0  .  1
   O  O14  1  0.968839  0.249997  0.717920  0  .  1
 
