#\#CIF1.1
##########################################################################
#               Crystallographic Information Format file 
#               Produced by PyCifRW module
# 
#  This is a CIF file.  CIF has been adopted by the International
#  Union of Crystallography as the standard for data archiving and 
#  transmission.
#
#  For information on this file format, follow the CIF links at
#  http://www.iucr.org
##########################################################################

data_V3NiO8
_symmetry_space_group_name_H-M          'P 1'
_cell_length_a                          5.65172084746
_cell_length_b                          7.0984799006
_cell_length_c                          5.39242859132
_cell_angle_alpha                       90.7422798054
_cell_angle_beta                        90.1359923042
_cell_angle_gamma                       88.8991961456
_chemical_name_systematic               'Generated by pymatgen'
_symmetry_Int_Tables_number             1
_chemical_formula_structural            V3NiO8
_chemical_formula_sum                   'V3 Ni1 O8'
_cell_volume                            216.278264305
_cell_formula_units_Z                   1
loop_
  _symmetry_equiv_pos_site_id
  _symmetry_equiv_pos_as_xyz
   1  'x, y, z'
 
loop_
  _atom_site_type_symbol
  _atom_site_label
  _atom_site_symmetry_multiplicity
  _atom_site_fract_x
  _atom_site_fract_y
  _atom_site_fract_z
  _atom_site_attached_hydrogens
  _atom_site_B_iso_or_equiv
  _atom_site_occupancy
   V  V1  1  0.076179  0.122014  0.008464  0  .  1
   V  V2  1  0.423495  0.628183  0.500020  0  .  1
   V  V3  1  0.572445  0.371332  0.997459  0  .  1
   Ni  Ni4  1  0.914425  0.875637  0.497528  0  .  1
   O  O5  1  0.053176  0.080834  0.315826  0  .  1
   O  O6  1  0.133599  0.666336  0.435570  0  .  1
   O  O7  1  0.377049  0.180736  0.924547  0  .  1
   O  O8  1  0.465307  0.570890  0.822630  0  .  1
   O  O9  1  0.537025  0.428940  0.323521  0  .  1
   O  O10  1  0.581517  0.822671  0.437750  0  .  1
   O  O11  1  0.882043  0.320101  0.939645  0  .  1
   O  O12  1  0.983740  0.932322  0.845440  0  .  1
 
