#\#CIF1.1
##########################################################################
#               Crystallographic Information Format file 
#               Produced by PyCifRW module
# 
#  This is a CIF file.  CIF has been adopted by the International
#  Union of Crystallography as the standard for data archiving and 
#  transmission.
#
#  For information on this file format, follow the CIF links at
#  http://www.iucr.org
##########################################################################

data_V3O5
_symmetry_space_group_name_H-M          'P 1'
_cell_length_a                          5.18976844
_cell_length_b                          9.99563493753
_cell_length_c                          7.111900114
_cell_angle_alpha                       70.7335480739
_cell_angle_beta                        90.0
_cell_angle_gamma                       90.0
_chemical_name_systematic               'Generated by pymatgen'
_symmetry_Int_Tables_number             1
_chemical_formula_structural            V3O5
_chemical_formula_sum                   'V12 O20'
_cell_volume                            348.267857205
_cell_formula_units_Z                   4
loop_
  _symmetry_equiv_pos_site_id
  _symmetry_equiv_pos_as_xyz
   1  'x, y, z'
 
loop_
  _atom_site_type_symbol
  _atom_site_label
  _atom_site_symmetry_multiplicity
  _atom_site_fract_x
  _atom_site_fract_y
  _atom_site_fract_z
  _atom_site_attached_hydrogens
  _atom_site_B_iso_or_equiv
  _atom_site_occupancy
   V  V1  1  0.754933  0.119751  0.659795  0  .  1
   V  V2  1  0.745067  0.119751  0.159795  0  .  1
   V  V3  1  0.248748  0.878549  0.339122  0  .  1
   V  V4  1  0.251252  0.878549  0.839122  0  .  1
   V  V5  1  0.749073  0.377641  0.839148  0  .  1
   V  V6  1  0.750927  0.377641  0.339148  0  .  1
   V  V7  1  0.252349  0.619727  0.158200  0  .  1
   V  V8  1  0.247651  0.619727  0.658200  0  .  1
   V  V9  1  0.755238  0.747492  0.254335  0  .  1
   V  V10  1  0.744762  0.747492  0.754335  0  .  1
   V  V11  1  0.254045  0.247466  0.752745  0  .  1
   V  V12  1  0.245955  0.247466  0.252745  0  .  1
   O  O13  1  0.087485  0.062958  0.276586  0  .  1
   O  O14  1  0.412515  0.062958  0.776586  0  .  1
   O  O15  1  0.894694  0.948416  0.716263  0  .  1
   O  O16  1  0.605306  0.948416  0.216263  0  .  1
   O  O17  1  0.588365  0.563290  0.777444  0  .  1
   O  O18  1  0.911635  0.563290  0.277444  0  .  1
   O  O19  1  0.390961  0.447995  0.214894  0  .  1
   O  O20  1  0.109039  0.447995  0.714894  0  .  1
   O  O21  1  0.401429  0.668689  0.386928  0  .  1
   O  O22  1  0.098571  0.668689  0.886928  0  .  1
   O  O23  1  0.600229  0.326594  0.612163  0  .  1
   O  O24  1  0.899771  0.326594  0.112163  0  .  1
   O  O25  1  0.901725  0.167925  0.888849  0  .  1
   O  O26  1  0.598275  0.167925  0.388849  0  .  1
   O  O27  1  0.099020  0.826986  0.111869  0  .  1
   O  O28  1  0.400980  0.826986  0.611869  0  .  1
   O  O29  1  0.946179  0.748436  0.506627  0  .  1
   O  O30  1  0.553821  0.748436  0.006627  0  .  1
   O  O31  1  0.054489  0.248085  0.505033  0  .  1
   O  O32  1  0.445511  0.248085  0.005033  0  .  1
 
