#\#CIF1.1
##########################################################################
#               Crystallographic Information Format file 
#               Produced by PyCifRW module
# 
#  This is a CIF file.  CIF has been adopted by the International
#  Union of Crystallography as the standard for data archiving and 
#  transmission.
#
#  For information on this file format, follow the CIF links at
#  http://www.iucr.org
##########################################################################

data_V3ZnO8
_symmetry_space_group_name_H-M          'P 1'
_cell_length_a                          8.61185486896
_cell_length_b                          9.81241581546
_cell_length_c                          9.81241581658
_cell_angle_alpha                       61.1746161558
_cell_angle_beta                        63.9711030196
_cell_angle_gamma                       63.971103049
_chemical_name_systematic               'Generated by pymatgen'
_symmetry_Int_Tables_number             1
_chemical_formula_structural            V3ZnO8
_chemical_formula_sum                   'V12 Zn4 O32'
_cell_volume                            624.969643378
_cell_formula_units_Z                   4
loop_
  _symmetry_equiv_pos_site_id
  _symmetry_equiv_pos_as_xyz
   1  'x, y, z'
 
loop_
  _atom_site_type_symbol
  _atom_site_label
  _atom_site_symmetry_multiplicity
  _atom_site_fract_x
  _atom_site_fract_y
  _atom_site_fract_z
  _atom_site_attached_hydrogens
  _atom_site_B_iso_or_equiv
  _atom_site_occupancy
   O  O1  1  0.055684  0.642888  0.192969  0  .  1
   O  O2  1  0.891542  0.357112  0.807031  0  .  1
   O  O3  1  0.555684  0.192969  0.642888  0  .  1
   O  O4  1  0.391542  0.807031  0.357112  0  .  1
   O  O5  1  0.200093  0.352136  0.181493  0  .  1
   O  O6  1  0.733723  0.647864  0.818507  0  .  1
   O  O7  1  0.700093  0.181493  0.352136  0  .  1
   O  O8  1  0.233723  0.818507  0.647864  0  .  1
   O  O9  1  0.847181  0.399576  0.378454  0  .  1
   O  O10  1  0.625211  0.600424  0.621546  0  .  1
   O  O11  1  0.347181  0.378454  0.399576  0  .  1
   O  O12  1  0.125211  0.621546  0.600424  0  .  1
   O  O13  1  0.248753  0.298266  0.861958  0  .  1
   O  O14  1  0.408976  0.701734  0.138042  0  .  1
   O  O15  1  0.748753  0.861958  0.298266  0  .  1
   O  O16  1  0.908976  0.138042  0.701734  0  .  1
   O  O17  1  0.220884  0.151176  0.696803  0  .  1
   O  O18  1  0.068863  0.848824  0.303197  0  .  1
   O  O19  1  0.720884  0.696803  0.151176  0  .  1
   O  O20  1  0.568863  0.303197  0.848824  0  .  1
   O  O21  1  0.542293  0.927200  0.619829  0  .  1
   O  O22  1  0.089322  0.072800  0.380171  0  .  1
   O  O23  1  0.042293  0.619829  0.927200  0  .  1
   O  O24  1  0.589322  0.380171  0.072800  0  .  1
   O  O25  1  0.568153  0.938334  0.902817  0  .  1
   O  O26  1  0.409304  0.061666  0.097183  0  .  1
   O  O27  1  0.068153  0.902817  0.938334  0  .  1
   O  O28  1  0.909304  0.097183  0.061666  0  .  1
   O  O29  1  0.877955  0.909313  0.615942  0  .  1
   O  O30  1  0.403211  0.090687  0.384058  0  .  1
   O  O31  1  0.377955  0.615942  0.909313  0  .  1
   O  O32  1  0.903211  0.384058  0.090687  0  .  1
   V  V33  1  0.776408  0.259802  0.143668  0  .  1
   V  V34  1  0.179878  0.740198  0.856332  0  .  1
   V  V35  1  0.276408  0.143668  0.259802  0  .  1
   V  V36  1  0.679878  0.856332  0.740198  0  .  1
   V  V37  1  0.940591  0.509968  0.187459  0  .  1
   V  V38  1  0.638018  0.490032  0.812541  0  .  1
   V  V39  1  0.440591  0.187459  0.509968  0  .  1
   V  V40  1  0.138018  0.812541  0.490032  0  .  1
   V  V41  1  0.462520  0.188963  0.854722  0  .  1
   V  V42  1  0.506205  0.811037  0.145278  0  .  1
   V  V43  1  0.962520  0.854722  0.188963  0  .  1
   V  V44  1  0.006205  0.145278  0.811037  0  .  1
   Zn  Zn45  1  0.328192  0.516544  0.174102  0  .  1
   Zn  Zn46  1  0.018838  0.483456  0.825898  0  .  1
   Zn  Zn47  1  0.828192  0.174102  0.516544  0  .  1
   Zn  Zn48  1  0.518838  0.825898  0.483456  0  .  1
 
