#\#CIF1.1
##########################################################################
#               Crystallographic Information Format file 
#               Produced by PyCifRW module
# 
#  This is a CIF file.  CIF has been adopted by the International
#  Union of Crystallography as the standard for data archiving and 
#  transmission.
#
#  For information on this file format, follow the CIF links at
#  http://www.iucr.org
##########################################################################

data_V5FeO12
_symmetry_space_group_name_H-M          'P 1'
_cell_length_a                          6.83536060943
_cell_length_b                          6.83536110483
_cell_length_c                          5.87572283642
_cell_angle_alpha                       75.1020796337
_cell_angle_beta                        104.897917567
_cell_angle_gamma                       95.5785723227
_chemical_name_systematic               'Generated by pymatgen'
_symmetry_Int_Tables_number             1
_chemical_formula_structural            V5FeO12
_chemical_formula_sum                   'V5 Fe1 O12'
_cell_volume                            256.23816231
_cell_formula_units_Z                   1
loop_
  _symmetry_equiv_pos_site_id
  _symmetry_equiv_pos_as_xyz
   1  'x, y, z'
 
loop_
  _atom_site_type_symbol
  _atom_site_label
  _atom_site_symmetry_multiplicity
  _atom_site_fract_x
  _atom_site_fract_y
  _atom_site_fract_z
  _atom_site_attached_hydrogens
  _atom_site_B_iso_or_equiv
  _atom_site_occupancy
   V  V1  1  0.915083  0.915083  0.250000  0  .  1
   V  V2  1  0.207704  0.612597  0.758861  0  .  1
   V  V3  1  0.391779  0.794633  0.263951  0  .  1
   V  V4  1  0.612597  0.207704  0.741139  0  .  1
   V  V5  1  0.794633  0.391779  0.236049  0  .  1
   Fe  Fe6  1  0.085816  0.085816  0.750000  0  .  1
   O  O7  1  0.036006  0.806893  0.632845  0  .  1
   O  O8  1  0.090245  0.382807  0.779301  0  .  1
   O  O9  1  0.187792  0.958859  0.154585  0  .  1
   O  O10  1  0.370650  0.641156  0.558667  0  .  1
   O  O11  1  0.382807  0.090245  0.720699  0  .  1
   O  O12  1  0.348638  0.635078  0.052480  0  .  1
   O  O13  1  0.641156  0.370650  0.941333  0  .  1
   O  O14  1  0.632899  0.901365  0.286885  0  .  1
   O  O15  1  0.635078  0.348638  0.447520  0  .  1
   O  O16  1  0.806893  0.036006  0.867155  0  .  1
   O  O17  1  0.901365  0.632899  0.213115  0  .  1
   O  O18  1  0.958859  0.187792  0.345415  0  .  1
 
