#\#CIF1.1
##########################################################################
#               Crystallographic Information Format file 
#               Produced by PyCifRW module
# 
#  This is a CIF file.  CIF has been adopted by the International
#  Union of Crystallography as the standard for data archiving and 
#  transmission.
#
#  For information on this file format, follow the CIF links at
#  http://www.iucr.org
##########################################################################

data_V5O12
_symmetry_space_group_name_H-M          'P 1'
_cell_length_a                          5.32889985024
_cell_length_b                          10.8534702458
_cell_length_c                          9.69204431569
_cell_angle_alpha                       27.2246222455
_cell_angle_beta                        50.1868394935
_cell_angle_gamma                       55.5298366566
_chemical_name_systematic               'Generated by pymatgen'
_symmetry_Int_Tables_number             1
_chemical_formula_structural            V5O12
_chemical_formula_sum                   'V5 O12'
_cell_volume                            196.975448378
_cell_formula_units_Z                   1
loop_
  _symmetry_equiv_pos_site_id
  _symmetry_equiv_pos_as_xyz
   1  'x, y, z'
 
loop_
  _atom_site_type_symbol
  _atom_site_label
  _atom_site_symmetry_multiplicity
  _atom_site_fract_x
  _atom_site_fract_y
  _atom_site_fract_z
  _atom_site_attached_hydrogens
  _atom_site_B_iso_or_equiv
  _atom_site_occupancy
   V  V1  1  0.032686  0.014003  0.969551  0  .  1
   V  V2  1  0.975898  0.481869  0.032837  0  .  1
   V  V3  1  0.481985  0.974932  0.542841  0  .  1
   V  V4  1  0.511105  0.528217  0.454652  0  .  1
   V  V5  1  0.319245  0.995809  0.281282  0  .  1
   O  O6  1  0.334151  0.287419  0.134877  0  .  1
   O  O7  1  0.232409  0.101849  0.629199  0  .  1
   O  O8  1  0.123665  0.308972  0.720897  0  .  1
   O  O9  1  0.887789  0.168340  0.245143  0  .  1
   O  O10  1  0.334927  0.813879  0.119457  0  .  1
   O  O11  1  0.743225  0.394337  0.335664  0  .  1
   O  O12  1  0.225618  0.676651  0.559540  0  .  1
   O  O13  1  0.552274  0.176544  0.897492  0  .  1
   O  O14  1  0.139323  0.807421  0.711836  0  .  1
   O  O15  1  0.845690  0.685384  0.241175  0  .  1
   O  O16  1  0.702528  0.900730  0.328853  0  .  1
   O  O17  1  0.616783  0.683645  0.854005  0  .  1
 
