#\#CIF1.1
##########################################################################
#               Crystallographic Information Format file 
#               Produced by PyCifRW module
# 
#  This is a CIF file.  CIF has been adopted by the International
#  Union of Crystallography as the standard for data archiving and 
#  transmission.
#
#  For information on this file format, follow the CIF links at
#  http://www.iucr.org
##########################################################################

data_V6Cu11O26
_symmetry_space_group_name_H-M          'P 1'
_cell_length_a                          8.18277311764
_cell_length_b                          8.32528170744
_cell_length_c                          8.309706952
_cell_angle_alpha                       106.217319958
_cell_angle_beta                        107.103990742
_cell_angle_gamma                       91.5911332463
_chemical_name_systematic               'Generated by pymatgen'
_symmetry_Int_Tables_number             1
_chemical_formula_structural            V6Cu11O26
_chemical_formula_sum                   'V6 Cu11 O26'
_cell_volume                            515.785134877
_cell_formula_units_Z                   1
loop_
  _symmetry_equiv_pos_site_id
  _symmetry_equiv_pos_as_xyz
   1  'x, y, z'
 
loop_
  _atom_site_type_symbol
  _atom_site_label
  _atom_site_symmetry_multiplicity
  _atom_site_fract_x
  _atom_site_fract_y
  _atom_site_fract_z
  _atom_site_attached_hydrogens
  _atom_site_B_iso_or_equiv
  _atom_site_occupancy
   O  O1  1  0.608025  0.036635  0.178192  0  .  1
   O  O2  1  0.391974  0.963364  0.821808  0  .  1
   O  O3  1  0.282900  0.572241  0.735577  0  .  1
   O  O4  1  0.717101  0.427759  0.264423  0  .  1
   O  O5  1  0.466550  0.666038  0.092519  0  .  1
   O  O6  1  0.533451  0.333962  0.907480  0  .  1
   O  O7  1  0.265689  0.596521  0.280556  0  .  1
   O  O8  1  0.734311  0.403478  0.719445  0  .  1
   O  O9  1  0.758801  0.876766  0.927535  0  .  1
   O  O10  1  0.241200  0.123234  0.072465  0  .  1
   O  O11  1  0.886984  0.278082  0.005266  0  .  1
   O  O12  1  0.113016  0.721918  0.994734  0  .  1
   O  O13  1  0.815878  0.623777  0.070922  0  .  1
   O  O14  1  0.184122  0.376223  0.929078  0  .  1
   O  O15  1  0.627922  0.054921  0.677160  0  .  1
   O  O16  1  0.372079  0.945079  0.322841  0  .  1
   O  O17  1  0.973416  0.996066  0.752309  0  .  1
   O  O18  1  0.502258  0.713689  0.573699  0  .  1
   O  O19  1  0.497742  0.286311  0.426300  0  .  1
   O  O20  1  0.086597  0.787603  0.475214  0  .  1
   O  O21  1  0.913403  0.212397  0.524786  0  .  1
   O  O22  1  0.026585  0.003934  0.247692  0  .  1
   O  O23  1  0.883964  0.632503  0.629989  0  .  1
   O  O24  1  0.733889  0.813936  0.387417  0  .  1
   O  O25  1  0.266111  0.186064  0.612583  0  .  1
   O  O26  1  0.116035  0.367498  0.370011  0  .  1
   V  V27  1  0.735037  0.414373  0.063034  0  .  1
   V  V28  1  0.264963  0.585627  0.936967  0  .  1
   V  V29  1  0.919141  0.810246  0.560936  0  .  1
   V  V30  1  0.080859  0.189753  0.439064  0  .  1
   V  V31  1  0.433569  0.092942  0.243986  0  .  1
   V  V32  1  0.566432  0.907057  0.756013  0  .  1
   Cu  Cu33  1  0.868209  0.211107  0.743870  0  .  1
   Cu  Cu34  1  0.144848  0.369886  0.146664  0  .  1
   Cu  Cu35  1  0.855153  0.630115  0.853336  0  .  1
   Cu  Cu36  1  0.131790  0.788892  0.256130  0  .  1
   Cu  Cu37  1  0.722778  0.422118  0.488678  0  .  1
   Cu  Cu38  1  0.277223  0.577882  0.511321  0  .  1
   Cu  Cu39  1  0.501280  0.292075  0.662052  0  .  1
   Cu  Cu40  1  0.498720  0.707925  0.337948  0  .  1
   Cu  Cu41  1  0.281806  0.163540  0.856583  0  .  1
   Cu  Cu42  1  0.718195  0.836461  0.143417  0  .  1
   Cu  Cu43  1  0.000000  0.000000  0.000000  0  .  1
 
