#\#CIF1.1
##########################################################################
#               Crystallographic Information Format file 
#               Produced by PyCifRW module
# 
#  This is a CIF file.  CIF has been adopted by the International
#  Union of Crystallography as the standard for data archiving and 
#  transmission.
#
#  For information on this file format, follow the CIF links at
#  http://www.iucr.org
##########################################################################

data_V7O3
_symmetry_space_group_name_H-M          'P 1'
_cell_length_a                          3.14101599
_cell_length_b                          5.37865346467
_cell_length_c                          8.84667982081
_cell_angle_alpha                       92.0277396741
_cell_angle_beta                        90.0
_cell_angle_gamma                       106.977076074
_chemical_name_systematic               'Generated by pymatgen'
_symmetry_Int_Tables_number             1
_chemical_formula_structural            V7O3
_chemical_formula_sum                   'V7 O3'
_cell_volume                            142.848609139
_cell_formula_units_Z                   1
loop_
  _symmetry_equiv_pos_site_id
  _symmetry_equiv_pos_as_xyz
   1  'x, y, z'
 
loop_
  _atom_site_type_symbol
  _atom_site_label
  _atom_site_symmetry_multiplicity
  _atom_site_fract_x
  _atom_site_fract_y
  _atom_site_fract_z
  _atom_site_attached_hydrogens
  _atom_site_B_iso_or_equiv
  _atom_site_occupancy
   V  V1  1  0.500000  0.000000  0.500000  0  .  1
   V  V2  1  0.637360  0.274721  0.081667  0  .  1
   V  V3  1  0.362640  0.725279  0.918333  0  .  1
   V  V4  1  0.798973  0.597947  0.628056  0  .  1
   V  V5  1  0.201027  0.402053  0.371944  0  .  1
   V  V6  1  0.919952  0.839902  0.229557  0  .  1
   V  V7  1  0.080048  0.160098  0.770443  0  .  1
   O  O8  1  0.000000  0.000000  0.000000  0  .  1
   O  O9  1  0.281510  0.563019  0.145832  0  .  1
   O  O10  1  0.718490  0.436981  0.854168  0  .  1
 
