#\#CIF1.1
##########################################################################
#               Crystallographic Information Format file 
#               Produced by PyCifRW module
# 
#  This is a CIF file.  CIF has been adopted by the International
#  Union of Crystallography as the standard for data archiving and 
#  transmission.
#
#  For information on this file format, follow the CIF links at
#  http://www.iucr.org
##########################################################################

data_V8O15
_symmetry_space_group_name_H-M          'P 1'
_cell_length_a                          5.54238491219
_cell_length_b                          7.08985250893
_cell_length_c                          13.5548554489
_cell_angle_alpha                       101.544416039
_cell_angle_beta                        97.7820892658
_cell_angle_gamma                       107.579578841
_chemical_name_systematic               'Generated by pymatgen'
_symmetry_Int_Tables_number             1
_chemical_formula_structural            V8O15
_chemical_formula_sum                   'V16 O30'
_cell_volume                            486.427110499
_cell_formula_units_Z                   2
loop_
  _symmetry_equiv_pos_site_id
  _symmetry_equiv_pos_as_xyz
   1  'x, y, z'
 
loop_
  _atom_site_type_symbol
  _atom_site_label
  _atom_site_symmetry_multiplicity
  _atom_site_fract_x
  _atom_site_fract_y
  _atom_site_fract_z
  _atom_site_attached_hydrogens
  _atom_site_B_iso_or_equiv
  _atom_site_occupancy
   V  V1  1  0.870316  0.027659  0.186632  0  .  1
   V  V2  1  0.768654  0.271456  0.952478  0  .  1
   V  V3  1  0.820601  0.889330  0.560319  0  .  1
   V  V4  1  0.828231  0.395083  0.566948  0  .  1
   V  V5  1  0.179399  0.110670  0.439681  0  .  1
   V  V6  1  0.223774  0.227461  0.051143  0  .  1
   V  V7  1  0.529071  0.321772  0.309312  0  .  1
   V  V8  1  0.171769  0.604917  0.433052  0  .  1
   V  V9  1  0.482713  0.183757  0.692329  0  .  1
   V  V10  1  0.130612  0.465669  0.822541  0  .  1
   V  V11  1  0.129684  0.972341  0.813368  0  .  1
   V  V12  1  0.470929  0.678228  0.690688  0  .  1
   V  V13  1  0.231346  0.728544  0.047522  0  .  1
   V  V14  1  0.517287  0.816243  0.307671  0  .  1
   V  V15  1  0.869388  0.534331  0.177459  0  .  1
   V  V16  1  0.776226  0.772539  0.948857  0  .  1
   O  O17  1  0.267401  0.870571  0.391205  0  .  1
   O  O18  1  0.587680  0.441004  0.654675  0  .  1
   O  O19  1  0.926898  0.658811  0.525807  0  .  1
   O  O20  1  0.236300  0.690171  0.182628  0  .  1
   O  O21  1  0.732599  0.129429  0.608795  0  .  1
   O  O22  1  0.818452  0.561653  0.021669  0  .  1
   O  O23  1  0.084837  0.740612  0.894043  0  .  1
   O  O24  1  0.073102  0.341189  0.474193  0  .  1
   O  O25  1  0.759174  0.767760  0.218920  0  .  1
   O  O26  1  0.144716  0.143151  0.289172  0  .  1
   O  O27  1  0.082341  0.949898  0.080270  0  .  1
   O  O28  1  0.539245  0.278888  0.451148  0  .  1
   O  O29  1  0.481956  0.347617  0.156194  0  .  1
   O  O30  1  0.855284  0.856849  0.710828  0  .  1
   O  O31  1  0.195275  0.068822  0.577151  0  .  1
   O  O32  1  0.181548  0.438347  0.978331  0  .  1
   O  O33  1  0.106911  0.509666  0.682352  0  .  1
   O  O34  1  0.763700  0.309829  0.817372  0  .  1
   O  O35  1  0.518044  0.652383  0.843806  0  .  1
   O  O36  1  0.392584  0.932009  0.742874  0  .  1
   O  O37  1  0.563698  0.847484  0.048918  0  .  1
   O  O38  1  0.460755  0.721112  0.548852  0  .  1
   O  O39  1  0.412320  0.558996  0.345325  0  .  1
   O  O40  1  0.915163  0.259388  0.105957  0  .  1
   O  O41  1  0.917659  0.050102  0.919730  0  .  1
   O  O42  1  0.893089  0.490334  0.317648  0  .  1
   O  O43  1  0.240826  0.232240  0.781080  0  .  1
   O  O44  1  0.607416  0.067991  0.257126  0  .  1
   O  O45  1  0.436302  0.152516  0.951082  0  .  1
   O  O46  1  0.804725  0.931178  0.422849  0  .  1
 
