#\#CIF1.1
##########################################################################
#               Crystallographic Information Format file 
#               Produced by PyCifRW module
# 
#  This is a CIF file.  CIF has been adopted by the International
#  Union of Crystallography as the standard for data archiving and 
#  transmission.
#
#  For information on this file format, follow the CIF links at
#  http://www.iucr.org
##########################################################################

data_V9NiO15
_symmetry_space_group_name_H-M          'P 1'
_cell_length_a                          27.6949694875
_cell_length_b                          14.9730553409
_cell_length_c                          9.83272149054
_cell_angle_alpha                       26.2383659322
_cell_angle_beta                        27.378373107
_cell_angle_gamma                       17.5961590944
_chemical_name_systematic               'Generated by pymatgen'
_symmetry_Int_Tables_number             1
_chemical_formula_structural            V9NiO15
_chemical_formula_sum                   'V18 Ni2 O30'
_cell_volume                            528.08562257
_cell_formula_units_Z                   2
loop_
  _symmetry_equiv_pos_site_id
  _symmetry_equiv_pos_as_xyz
   1  'x, y, z'
 
loop_
  _atom_site_type_symbol
  _atom_site_label
  _atom_site_symmetry_multiplicity
  _atom_site_fract_x
  _atom_site_fract_y
  _atom_site_fract_z
  _atom_site_attached_hydrogens
  _atom_site_B_iso_or_equiv
  _atom_site_occupancy
   V  V1  1  0.141164  0.149153  0.147022  0  .  1
   V  V2  1  0.060808  0.346194  0.355772  0  .  1
   V  V3  1  0.341087  0.147614  0.149502  0  .  1
   V  V4  1  0.257651  0.352580  0.354273  0  .  1
   V  V5  1  0.540004  0.148277  0.151367  0  .  1
   V  V6  1  0.142349  0.647420  0.645727  0  .  1
   V  V7  1  0.459973  0.350719  0.349177  0  .  1
   V  V8  1  0.058913  0.852386  0.850498  0  .  1
   V  V9  1  0.738929  0.153528  0.145660  0  .  1
   V  V10  1  0.339192  0.653806  0.644228  0  .  1
   V  V11  1  0.661222  0.351917  0.345662  0  .  1
   V  V12  1  0.258836  0.850847  0.852978  0  .  1
   V  V13  1  0.540989  0.650566  0.653103  0  .  1
   V  V14  1  0.859011  0.349434  0.346897  0  .  1
   V  V15  1  0.738778  0.648083  0.654338  0  .  1
   V  V16  1  0.661071  0.846472  0.854340  0  .  1
   V  V17  1  0.940027  0.649281  0.650823  0  .  1
   V  V18  1  0.859996  0.851723  0.848633  0  .  1
   Ni  Ni19  1  0.941385  0.145790  0.147460  0  .  1
   Ni  Ni20  1  0.458615  0.854210  0.852540  0  .  1
   O  O21  1  0.122068  0.050790  0.743209  0  .  1
   O  O22  1  0.161764  0.445107  0.052564  0  .  1
   O  O23  1  0.178115  0.250890  0.551351  0  .  1
   O  O24  1  0.021579  0.743153  0.455065  0  .  1
   O  O25  1  0.314300  0.054933  0.751452  0  .  1
   O  O26  1  0.360239  0.445998  0.055177  0  .  1
   O  O27  1  0.039761  0.554002  0.944823  0  .  1
   O  O28  1  0.085700  0.945067  0.248548  0  .  1
   O  O29  1  0.378421  0.256847  0.544935  0  .  1
   O  O30  1  0.221885  0.749110  0.448649  0  .  1
   O  O31  1  0.515971  0.056851  0.750267  0  .  1
   O  O32  1  0.564414  0.433535  0.059267  0  .  1
   O  O33  1  0.238236  0.554893  0.947436  0  .  1
   O  O34  1  0.277932  0.949210  0.256791  0  .  1
   O  O35  1  0.578213  0.249400  0.555056  0  .  1
   O  O36  1  0.422850  0.749381  0.443190  0  .  1
   O  O37  1  0.716604  0.058028  0.747547  0  .  1
   O  O38  1  0.756340  0.454857  0.051504  0  .  1
   O  O39  1  0.439229  0.558248  0.940103  0  .  1
   O  O40  1  0.483497  0.943092  0.253233  0  .  1
   O  O41  1  0.774016  0.249414  0.570243  0  .  1
   O  O42  1  0.625984  0.750586  0.429757  0  .  1
   O  O43  1  0.916503  0.056908  0.746767  0  .  1
   O  O44  1  0.960771  0.441752  0.059897  0  .  1
   O  O45  1  0.643660  0.545143  0.948496  0  .  1
   O  O46  1  0.683396  0.941972  0.252453  0  .  1
   O  O47  1  0.977150  0.250619  0.556810  0  .  1
   O  O48  1  0.821787  0.750600  0.444944  0  .  1
   O  O49  1  0.835586  0.566465  0.940733  0  .  1
   O  O50  1  0.884029  0.943149  0.249733  0  .  1
 
