#\#CIF1.1
##########################################################################
#               Crystallographic Information Format file 
#               Produced by PyCifRW module
# 
#  This is a CIF file.  CIF has been adopted by the International
#  Union of Crystallography as the standard for data archiving and 
#  transmission.
#
#  For information on this file format, follow the CIF links at
#  http://www.iucr.org
##########################################################################

data_V9O22
_symmetry_space_group_name_H-M          'P 1'
_cell_length_a                          22.1865553327
_cell_length_b                          3.65304435
_cell_length_c                          10.3457641835
_cell_angle_alpha                       90.0
_cell_angle_beta                        74.47856093
_cell_angle_gamma                       90.0
_chemical_name_systematic               'Generated by pymatgen'
_symmetry_Int_Tables_number             1
_chemical_formula_structural            V9O22
_chemical_formula_sum                   'V18 O44'
_cell_volume                            807.928291165
_cell_formula_units_Z                   2
loop_
  _symmetry_equiv_pos_site_id
  _symmetry_equiv_pos_as_xyz
   1  'x, y, z'
 
loop_
  _atom_site_type_symbol
  _atom_site_label
  _atom_site_symmetry_multiplicity
  _atom_site_fract_x
  _atom_site_fract_y
  _atom_site_fract_z
  _atom_site_attached_hydrogens
  _atom_site_B_iso_or_equiv
  _atom_site_occupancy
   V  V1  1  0.026670  0.250000  0.593004  0  .  1
   V  V2  1  0.090819  0.750000  0.133920  0  .  1
   V  V3  1  0.061163  0.250000  0.904236  0  .  1
   V  V4  1  0.284508  0.250000  0.174233  0  .  1
   V  V5  1  0.254240  0.750000  0.946831  0  .  1
   V  V6  1  0.314356  0.250000  0.491005  0  .  1
   V  V7  1  0.367729  0.750000  0.674516  0  .  1
   V  V8  1  0.429628  0.250000  0.218869  0  .  1
   V  V9  1  0.406942  0.750000  0.985603  0  .  1
   V  V10  1  0.592532  0.250000  0.013538  0  .  1
   V  V11  1  0.569704  0.750000  0.779877  0  .  1
   V  V12  1  0.632040  0.250000  0.324589  0  .  1
   V  V13  1  0.685758  0.750000  0.508007  0  .  1
   V  V14  1  0.745568  0.250000  0.052005  0  .  1
   V  V15  1  0.714559  0.750000  0.825268  0  .  1
   V  V16  1  0.939251  0.750000  0.096798  0  .  1
   V  V17  1  0.909507  0.250000  0.867101  0  .  1
   V  V18  1  0.973273  0.750000  0.408033  0  .  1
   O  O19  1  0.004290  0.750000  0.574590  0  .  1
   O  O20  1  0.079468  0.250000  0.088094  0  .  1
   O  O21  1  0.010658  0.250000  0.781119  0  .  1
   O  O22  1  0.093693  0.750000  0.288888  0  .  1
   O  O23  1  0.046075  0.750000  0.954568  0  .  1
   O  O24  1  0.101073  0.250000  0.545868  0  .  1
   O  O25  1  0.172414  0.750000  0.041008  0  .  1
   O  O26  1  0.130036  0.250000  0.804665  0  .  1
   O  O27  1  0.215085  0.250000  0.271456  0  .  1
   O  O28  1  0.239864  0.250000  0.534817  0  .  1
   O  O29  1  0.301807  0.750000  0.123458  0  .  1
   O  O30  1  0.250042  0.750000  0.793001  0  .  1
   O  O31  1  0.333094  0.250000  0.299212  0  .  1
   O  O32  1  0.265692  0.250000  0.992120  0  .  1
   O  O33  1  0.391065  0.250000  0.029054  0  .  1
   O  O34  1  0.336164  0.750000  0.505534  0  .  1
   O  O35  1  0.343903  0.250000  0.655622  0  .  1
   O  O36  1  0.425448  0.750000  0.166310  0  .  1
   O  O37  1  0.355030  0.750000  0.857854  0  .  1
   O  O38  1  0.436045  0.250000  0.370610  0  .  1
   O  O39  1  0.442163  0.750000  0.619081  0  .  1
   O  O40  1  0.519301  0.250000  0.118051  0  .  1
   O  O41  1  0.480201  0.750000  0.881019  0  .  1
   O  O42  1  0.557693  0.250000  0.380545  0  .  1
   O  O43  1  0.563055  0.750000  0.628379  0  .  1
   O  O44  1  0.644188  0.250000  0.141475  0  .  1
   O  O45  1  0.574001  0.250000  0.832445  0  .  1
   O  O46  1  0.655966  0.750000  0.343605  0  .  1
   O  O47  1  0.664084  0.250000  0.493246  0  .  1
   O  O48  1  0.733923  0.750000  0.006745  0  .  1
   O  O49  1  0.608305  0.750000  0.970020  0  .  1
   O  O50  1  0.666177  0.750000  0.699853  0  .  1
   O  O51  1  0.749237  0.250000  0.206056  0  .  1
   O  O52  1  0.697306  0.250000  0.876044  0  .  1
   O  O53  1  0.760299  0.750000  0.465436  0  .  1
   O  O54  1  0.783958  0.750000  0.727662  0  .  1
   O  O55  1  0.870290  0.750000  0.196447  0  .  1
   O  O56  1  0.827499  0.250000  0.958942  0  .  1
   O  O57  1  0.898720  0.750000  0.455834  0  .  1
   O  O58  1  0.954187  0.250000  0.046200  0  .  1
   O  O59  1  0.907038  0.250000  0.712013  0  .  1
   O  O60  1  0.989554  0.750000  0.219994  0  .  1
   O  O61  1  0.920481  0.750000  0.913255  0  .  1
   O  O62  1  0.995725  0.250000  0.426174  0  .  1
 
