#\#CIF1.1
##########################################################################
#               Crystallographic Information Format file 
#               Produced by PyCifRW module
# 
#  This is a CIF file.  CIF has been adopted by the International
#  Union of Crystallography as the standard for data archiving and 
#  transmission.
#
#  For information on this file format, follow the CIF links at
#  http://www.iucr.org
##########################################################################

data_VCo3O8
_symmetry_space_group_name_H-M          'P 1'
_cell_length_a                          5.66672076323
_cell_length_b                          5.66965224183
_cell_length_c                          8.8351346384
_cell_angle_alpha                       90.0039700584
_cell_angle_beta                        89.9980203046
_cell_angle_gamma                       120.01711417
_chemical_name_systematic               'Generated by pymatgen'
_symmetry_Int_Tables_number             1
_chemical_formula_structural            VCo3O8
_chemical_formula_sum                   'V2 Co6 O16'
_cell_volume                            245.785985015
_cell_formula_units_Z                   2
loop_
  _symmetry_equiv_pos_site_id
  _symmetry_equiv_pos_as_xyz
   1  'x, y, z'
 
loop_
  _atom_site_type_symbol
  _atom_site_label
  _atom_site_symmetry_multiplicity
  _atom_site_fract_x
  _atom_site_fract_y
  _atom_site_fract_z
  _atom_site_attached_hydrogens
  _atom_site_B_iso_or_equiv
  _atom_site_occupancy
   V  V1  1  0.332693  0.667590  0.501864  0  .  1
   V  V2  1  0.667307  0.334897  0.001864  0  .  1
   Co  Co3  1  0.170071  0.831352  0.216950  0  .  1
   Co  Co4  1  0.169992  0.339680  0.211972  0  .  1
   Co  Co5  1  0.658504  0.829593  0.213137  0  .  1
   Co  Co6  1  0.341496  0.171089  0.713137  0  .  1
   Co  Co7  1  0.829929  0.661281  0.716950  0  .  1
   Co  Co8  1  0.830008  0.169687  0.711972  0  .  1
   O  O9  1  0.172881  0.827764  0.597564  0  .  1
   O  O10  1  0.040087  0.518290  0.335409  0  .  1
   O  O11  1  0.328710  0.670334  0.106111  0  .  1
   O  O12  1  0.002878  0.996249  0.311050  0  .  1
   O  O13  1  0.997122  0.993373  0.811050  0  .  1
   O  O14  1  0.167732  0.339588  0.596989  0  .  1
   O  O15  1  0.477040  0.956916  0.337609  0  .  1
   O  O16  1  0.475850  0.518445  0.333166  0  .  1
   O  O17  1  0.337074  0.171053  0.096038  0  .  1
   O  O18  1  0.662926  0.833979  0.596038  0  .  1
   O  O19  1  0.522960  0.479876  0.837609  0  .  1
   O  O20  1  0.524150  0.042593  0.833166  0  .  1
   O  O21  1  0.671290  0.341624  0.606111  0  .  1
   O  O22  1  0.827119  0.654883  0.097564  0  .  1
   O  O23  1  0.959913  0.478204  0.835409  0  .  1
   O  O24  1  0.832268  0.171856  0.096989  0  .  1
 
