#\#CIF1.1
##########################################################################
#               Crystallographic Information Format file 
#               Produced by PyCifRW module
# 
#  This is a CIF file.  CIF has been adopted by the International
#  Union of Crystallography as the standard for data archiving and 
#  transmission.
#
#  For information on this file format, follow the CIF links at
#  http://www.iucr.org
##########################################################################

data_VCrO4
_symmetry_space_group_name_H-M          'P 1'
_cell_length_a                          6.09190444
_cell_length_b                          5.81688803196
_cell_length_c                          5.81688760637
_cell_angle_alpha                       59.7639779359
_cell_angle_beta                        58.4233044587
_cell_angle_gamma                       58.4233070352
_chemical_name_systematic               'Generated by pymatgen'
_symmetry_Int_Tables_number             1
_chemical_formula_structural            VCrO4
_chemical_formula_sum                   'V2 Cr2 O8'
_cell_volume                            141.940402442
_cell_formula_units_Z                   2
loop_
  _symmetry_equiv_pos_site_id
  _symmetry_equiv_pos_as_xyz
   1  'x, y, z'
 
loop_
  _atom_site_type_symbol
  _atom_site_label
  _atom_site_symmetry_multiplicity
  _atom_site_fract_x
  _atom_site_fract_y
  _atom_site_fract_z
  _atom_site_attached_hydrogens
  _atom_site_B_iso_or_equiv
  _atom_site_occupancy
   V  V1  1  0.125834  0.124166  0.124166  0  .  1
   V  V2  1  0.874166  0.875834  0.875834  0  .  1
   Cr  Cr3  1  0.000000  0.500000  0.500000  0  .  1
   Cr  Cr4  1  0.500000  0.500000  0.500000  0  .  1
   O  O5  1  0.223049  0.249695  0.249695  0  .  1
   O  O6  1  0.246537  0.270226  0.736700  0  .  1
   O  O7  1  0.246537  0.736700  0.270226  0  .  1
   O  O8  1  0.222438  0.750305  0.750305  0  .  1
   O  O9  1  0.777562  0.249695  0.249695  0  .  1
   O  O10  1  0.753463  0.263300  0.729774  0  .  1
   O  O11  1  0.753463  0.729774  0.263300  0  .  1
   O  O12  1  0.776951  0.750305  0.750305  0  .  1
 
