#\#CIF1.1
##########################################################################
#               Crystallographic Information Format file 
#               Produced by PyCifRW module
# 
#  This is a CIF file.  CIF has been adopted by the International
#  Union of Crystallography as the standard for data archiving and 
#  transmission.
#
#  For information on this file format, follow the CIF links at
#  http://www.iucr.org
##########################################################################

data_VFe3
_symmetry_space_group_name_H-M          'P 1'
_cell_length_a                          4.04713508792
_cell_length_b                          4.04713563947
_cell_length_c                          4.04713674962
_cell_angle_alpha                       59.9994641712
_cell_angle_beta                        59.999469604
_cell_angle_gamma                       59.9994520917
_chemical_name_systematic               'Generated by pymatgen'
_symmetry_Int_Tables_number             1
_chemical_formula_structural            VFe3
_chemical_formula_sum                   'V1 Fe3'
_cell_volume                            46.8730316986
_cell_formula_units_Z                   1
loop_
  _symmetry_equiv_pos_site_id
  _symmetry_equiv_pos_as_xyz
   1  'x, y, z'
 
loop_
  _atom_site_type_symbol
  _atom_site_label
  _atom_site_symmetry_multiplicity
  _atom_site_fract_x
  _atom_site_fract_y
  _atom_site_fract_z
  _atom_site_attached_hydrogens
  _atom_site_B_iso_or_equiv
  _atom_site_occupancy
   V  V1  1  0.750000  0.749999  0.749999  0  .  1
   Fe  Fe2  1  -0.000000  0.000000  0.000000  0  .  1
   Fe  Fe3  1  0.500000  0.500000  0.500000  0  .  1
   Fe  Fe4  1  0.250000  0.250000  0.250000  0  .  1
 
