#\#CIF1.1
##########################################################################
#               Crystallographic Information Format file 
#               Produced by PyCifRW module
# 
#  This is a CIF file.  CIF has been adopted by the International
#  Union of Crystallography as the standard for data archiving and 
#  transmission.
#
#  For information on this file format, follow the CIF links at
#  http://www.iucr.org
##########################################################################

data_VS2
_symmetry_space_group_name_H-M          'P 1'
_cell_length_a                          3.18814809677
_cell_length_b                          3.18814800799
_cell_length_c                          22.83869617
_cell_angle_alpha                       90.0
_cell_angle_beta                        90.0
_cell_angle_gamma                       119.949849794
_chemical_name_systematic               'Generated by pymatgen'
_symmetry_Int_Tables_number             1
_chemical_formula_structural            VS2
_chemical_formula_sum                   'V2 S4'
_cell_volume                            201.139862306
_cell_formula_units_Z                   2
loop_
  _symmetry_equiv_pos_site_id
  _symmetry_equiv_pos_as_xyz
   1  'x, y, z'
 
loop_
  _atom_site_type_symbol
  _atom_site_label
  _atom_site_symmetry_multiplicity
  _atom_site_fract_x
  _atom_site_fract_y
  _atom_site_fract_z
  _atom_site_attached_hydrogens
  _atom_site_B_iso_or_equiv
  _atom_site_occupancy
   V  V1  1  0.000000  0.000000  0.000000  0  .  1
   V  V2  1  0.000000  0.000000  0.500000  0  .  1
   S  S3  1  0.333556  0.666444  0.935641  0  .  1
   S  S4  1  0.333556  0.666444  0.564359  0  .  1
   S  S5  1  0.666444  0.333556  0.064359  0  .  1
   S  S6  1  0.666444  0.333556  0.435641  0  .  1
 
