#\#CIF1.1
##########################################################################
#               Crystallographic Information Format file 
#               Produced by PyCifRW module
# 
#  This is a CIF file.  CIF has been adopted by the International
#  Union of Crystallography as the standard for data archiving and 
#  transmission.
#
#  For information on this file format, follow the CIF links at
#  http://www.iucr.org
##########################################################################

data_XeF4
_symmetry_space_group_name_H-M          'P 1'
_cell_length_a                          5.27337584762
_cell_length_b                          5.98811098283
_cell_length_c                          5.98961592
_cell_angle_alpha                       90.0
_cell_angle_beta                        90.0
_cell_angle_gamma                       99.8430847743
_chemical_name_systematic               'Generated by pymatgen'
_symmetry_Int_Tables_number             1
_chemical_formula_structural            XeF4
_chemical_formula_sum                   'Xe2 F8'
_cell_volume                            186.353281232
_cell_formula_units_Z                   2
loop_
  _symmetry_equiv_pos_site_id
  _symmetry_equiv_pos_as_xyz
   1  'x, y, z'
 
loop_
  _atom_site_type_symbol
  _atom_site_label
  _atom_site_symmetry_multiplicity
  _atom_site_fract_x
  _atom_site_fract_y
  _atom_site_fract_z
  _atom_site_attached_hydrogens
  _atom_site_B_iso_or_equiv
  _atom_site_occupancy
   F  F1  1  0.233334  0.659456  0.650757  0  .  1
   F  F2  1  0.266666  0.840544  0.150757  0  .  1
   F  F3  1  0.251740  0.299981  0.008805  0  .  1
   F  F4  1  0.248260  0.200019  0.508805  0  .  1
   F  F5  1  0.748260  0.700019  0.991195  0  .  1
   F  F6  1  0.751740  0.799981  0.491195  0  .  1
   F  F7  1  0.733334  0.159456  0.849243  0  .  1
   F  F8  1  0.766666  0.340544  0.349243  0  .  1
   Xe  Xe9  1  0.500000  0.500000  0.500000  0  .  1
   Xe  Xe10  1  0.000000  0.000000  0.000000  0  .  1
 
