#\#CIF1.1
##########################################################################
#               Crystallographic Information Format file 
#               Produced by PyCifRW module
# 
#  This is a CIF file.  CIF has been adopted by the International
#  Union of Crystallography as the standard for data archiving and 
#  transmission.
#
#  For information on this file format, follow the CIF links at
#  http://www.iucr.org
##########################################################################

data_Y(GeRh)2
_symmetry_space_group_name_H-M          'P 1'
_cell_length_a                          4.14798943533
_cell_length_b                          4.14798943488
_cell_length_c                          5.96587243373
_cell_angle_alpha                       110.343227586
_cell_angle_beta                        110.343227581
_cell_angle_gamma                       90.0000000192
_chemical_name_systematic               'Generated by pymatgen'
_symmetry_Int_Tables_number             1
_chemical_formula_structural            Y(GeRh)2
_chemical_formula_sum                   'Y1 Ge2 Rh2'
_cell_volume                            89.3853762937
_cell_formula_units_Z                   1
loop_
  _symmetry_equiv_pos_site_id
  _symmetry_equiv_pos_as_xyz
   1  'x, y, z'
 
loop_
  _atom_site_type_symbol
  _atom_site_label
  _atom_site_symmetry_multiplicity
  _atom_site_fract_x
  _atom_site_fract_y
  _atom_site_fract_z
  _atom_site_attached_hydrogens
  _atom_site_B_iso_or_equiv
  _atom_site_occupancy
   Ge  Ge1  1  0.621667  0.621667  0.243334  0  .  1
   Ge  Ge2  1  0.378333  0.378333  0.756666  0  .  1
   Y  Y3  1  0.000000  0.000000  0.000000  0  .  1
   Rh  Rh4  1  0.750000  0.250000  0.500000  0  .  1
   Rh  Rh5  1  0.250000  0.750000  0.500000  0  .  1
 
