#\#CIF1.1
##########################################################################
#               Crystallographic Information Format file 
#               Produced by PyCifRW module
# 
#  This is a CIF file.  CIF has been adopted by the International
#  Union of Crystallography as the standard for data archiving and 
#  transmission.
#
#  For information on this file format, follow the CIF links at
#  http://www.iucr.org
##########################################################################

data_Y4Cu7O16
_symmetry_space_group_name_H-M          'P 1'
_cell_length_a                          11.3409631753
_cell_length_b                          12.5631382293
_cell_length_c                          6.22581773591
_cell_angle_alpha                       53.0240360093
_cell_angle_beta                        63.9372270746
_cell_angle_gamma                       65.1671054063
_chemical_name_systematic               'Generated by pymatgen'
_symmetry_Int_Tables_number             1
_chemical_formula_structural            Y4Cu7O16
_chemical_formula_sum                   'Y8 Cu14 O32'
_cell_volume                            621.422762374
_cell_formula_units_Z                   2
loop_
  _symmetry_equiv_pos_site_id
  _symmetry_equiv_pos_as_xyz
   1  'x, y, z'
 
loop_
  _atom_site_type_symbol
  _atom_site_label
  _atom_site_symmetry_multiplicity
  _atom_site_fract_x
  _atom_site_fract_y
  _atom_site_fract_z
  _atom_site_attached_hydrogens
  _atom_site_B_iso_or_equiv
  _atom_site_occupancy
   Cu  Cu1  1  0.003673  0.996377  0.509929  0  .  1
   Cu  Cu2  1  0.125000  0.750000  0.500000  0  .  1
   Cu  Cu3  1  0.246327  0.503623  0.490071  0  .  1
   Cu  Cu4  1  0.375757  0.248156  0.498322  0  .  1
   Cu  Cu5  1  0.498080  0.003437  0.506431  0  .  1
   Cu  Cu6  1  0.125000  0.750000  0.000000  0  .  1
   Cu  Cu7  1  0.367417  0.250990  0.995573  0  .  1
   Cu  Cu8  1  0.386642  0.750627  0.003653  0  .  1
   Cu  Cu9  1  0.625000  0.250000  0.000000  0  .  1
   Cu  Cu10  1  0.625000  0.750000  0.500000  0  .  1
   Cu  Cu11  1  0.751920  0.496563  0.493569  0  .  1
   Cu  Cu12  1  0.874243  0.251844  0.501678  0  .  1
   Cu  Cu13  1  0.882583  0.249010  0.004427  0  .  1
   Cu  Cu14  1  0.863358  0.749373  0.996347  0  .  1
   O  O15  1  0.147531  0.066160  0.389495  0  .  1
   O  O16  1  0.026659  0.738101  0.346587  0  .  1
   O  O17  1  0.102469  0.433840  0.610505  0  .  1
   O  O18  1  0.272568  0.238875  0.345747  0  .  1
   O  O19  1  0.234277  0.574287  0.134995  0  .  1
   O  O20  1  0.012966  0.648424  0.850124  0  .  1
   O  O21  1  0.478777  0.073718  0.148999  0  .  1
   O  O22  1  0.276221  0.138405  0.839910  0  .  1
   O  O23  1  0.237034  0.851576  0.149876  0  .  1
   O  O24  1  0.015723  0.925713  0.865005  0  .  1
   O  O25  1  0.483836  0.358021  0.145485  0  .  1
   O  O26  1  0.267396  0.432642  0.844118  0  .  1
   O  O27  1  0.223341  0.761899  0.653413  0  .  1
   O  O28  1  0.390663  0.585611  0.353613  0  .  1
   O  O29  1  0.474771  0.264466  0.646895  0  .  1
   O  O30  1  0.639800  0.087784  0.350891  0  .  1
   O  O31  1  0.364534  0.911407  0.659028  0  .  1
   O  O32  1  0.503483  0.745365  0.386647  0  .  1
   O  O33  1  0.610200  0.412216  0.649109  0  .  1
   O  O34  1  0.775229  0.235534  0.353105  0  .  1
   O  O35  1  0.734558  0.562631  0.152203  0  .  1
   O  O36  1  0.524229  0.642834  0.859780  0  .  1
   O  O37  1  0.982604  0.067358  0.155882  0  .  1
   O  O38  1  0.766164  0.141979  0.854515  0  .  1
   O  O39  1  0.725771  0.857166  0.140220  0  .  1
   O  O40  1  0.515442  0.937369  0.847797  0  .  1
   O  O41  1  0.973779  0.361595  0.160090  0  .  1
   O  O42  1  0.771223  0.426282  0.851001  0  .  1
   O  O43  1  0.746517  0.754635  0.613353  0  .  1
   O  O44  1  0.885466  0.588593  0.340972  0  .  1
   O  O45  1  0.977432  0.261125  0.654253  0  .  1
   O  O46  1  0.859337  0.914389  0.646387  0  .  1
   Y  Y47  1  0.091398  0.435404  0.246037  0  .  1
   Y  Y48  1  0.158602  0.064596  0.753963  0  .  1
   Y  Y49  1  0.344967  0.943068  0.238126  0  .  1
   Y  Y50  1  0.598670  0.443089  0.245554  0  .  1
   Y  Y51  1  0.409342  0.567990  0.742713  0  .  1
   Y  Y52  1  0.651330  0.056911  0.754446  0  .  1
   Y  Y53  1  0.840658  0.932010  0.257287  0  .  1
   Y  Y54  1  0.905033  0.556932  0.761874  0  .  1
 
