#\#CIF1.1
##########################################################################
#               Crystallographic Information Format file 
#               Produced by PyCifRW module
# 
#  This is a CIF file.  CIF has been adopted by the International
#  Union of Crystallography as the standard for data archiving and 
#  transmission.
#
#  For information on this file format, follow the CIF links at
#  http://www.iucr.org
##########################################################################

data_YbBa2BiO6
_symmetry_space_group_name_H-M          'P 1'
_cell_length_a                          6.15787470701
_cell_length_b                          6.15787412297
_cell_length_c                          6.15787422986
_cell_angle_alpha                       60.2604196182
_cell_angle_beta                        60.2604227286
_cell_angle_gamma                       60.2604245269
_chemical_name_systematic               'Generated by pymatgen'
_symmetry_Int_Tables_number             1
_chemical_formula_structural            YbBa2BiO6
_chemical_formula_sum                   'Yb1 Ba2 Bi1 O6'
_cell_volume                            166.084831983
_cell_formula_units_Z                   1
loop_
  _symmetry_equiv_pos_site_id
  _symmetry_equiv_pos_as_xyz
   1  'x, y, z'
 
loop_
  _atom_site_type_symbol
  _atom_site_label
  _atom_site_symmetry_multiplicity
  _atom_site_fract_x
  _atom_site_fract_y
  _atom_site_fract_z
  _atom_site_attached_hydrogens
  _atom_site_B_iso_or_equiv
  _atom_site_occupancy
   O  O1  1  0.209244  0.275547  0.758394  0  .  1
   O  O2  1  0.790756  0.724453  0.241606  0  .  1
   O  O3  1  0.275547  0.758394  0.209244  0  .  1
   O  O4  1  0.758394  0.209244  0.275547  0  .  1
   O  O5  1  0.724453  0.241606  0.790756  0  .  1
   O  O6  1  0.241606  0.790756  0.724453  0  .  1
   Bi  Bi7  1  0.000000  0.000000  0.000000  0  .  1
   Ba  Ba8  1  0.249864  0.249864  0.249864  0  .  1
   Ba  Ba9  1  0.750136  0.750136  0.750136  0  .  1
   Yb  Yb10  1  0.500000  0.500000  0.500000  0  .  1
 
