#\#CIF1.1
##########################################################################
#               Crystallographic Information Format file 
#               Produced by PyCifRW module
# 
#  This is a CIF file.  CIF has been adopted by the International
#  Union of Crystallography as the standard for data archiving and 
#  transmission.
#
#  For information on this file format, follow the CIF links at
#  http://www.iucr.org
##########################################################################

data_YbClO
_symmetry_space_group_name_H-M          'P 1'
_cell_length_a                          9.5102161761
_cell_length_b                          9.51021609327
_cell_length_c                          9.51021629761
_cell_angle_alpha                       23.5752127796
_cell_angle_beta                        23.5752139728
_cell_angle_gamma                       23.5752140652
_chemical_name_systematic               'Generated by pymatgen'
_symmetry_Int_Tables_number             1
_chemical_formula_structural            YbClO
_chemical_formula_sum                   'Yb2 Cl2 O2'
_cell_volume                            120.837016751
_cell_formula_units_Z                   2
loop_
  _symmetry_equiv_pos_site_id
  _symmetry_equiv_pos_as_xyz
   1  'x, y, z'
 
loop_
  _atom_site_type_symbol
  _atom_site_label
  _atom_site_symmetry_multiplicity
  _atom_site_fract_x
  _atom_site_fract_y
  _atom_site_fract_z
  _atom_site_attached_hydrogens
  _atom_site_B_iso_or_equiv
  _atom_site_occupancy
   O  O1  1  0.304309  0.304309  0.304309  0  .  1
   Cl  Cl2  1  0.111755  0.111755  0.111755  0  .  1
   O  O3  1  0.695988  0.695988  0.695988  0  .  1
   Cl  Cl4  1  0.888192  0.888192  0.888192  0  .  1
   Yb  Yb5  1  0.386677  0.386677  0.386677  0  .  1
   Yb  Yb6  1  0.613079  0.613079  0.613079  0  .  1
 
