#\#CIF1.1
##########################################################################
#               Crystallographic Information Format file 
#               Produced by PyCifRW module
# 
#  This is a CIF file.  CIF has been adopted by the International
#  Union of Crystallography as the standard for data archiving and 
#  transmission.
#
#  For information on this file format, follow the CIF links at
#  http://www.iucr.org
##########################################################################

data_YCoO3
_symmetry_space_group_name_H-M          'P 1'
_cell_length_a                          5.25653923
_cell_length_b                          5.835025
_cell_length_c                          7.28064366
_cell_angle_alpha                       90.0
_cell_angle_beta                        90.0
_cell_angle_gamma                       90.0
_chemical_name_systematic               'Generated by pymatgen'
_symmetry_Int_Tables_number             1
_chemical_formula_structural            YCoO3
_chemical_formula_sum                   'Y4 Co4 O12'
_cell_volume                            223.312177697
_cell_formula_units_Z                   4
loop_
  _symmetry_equiv_pos_site_id
  _symmetry_equiv_pos_as_xyz
   1  'x, y, z'
 
loop_
  _atom_site_type_symbol
  _atom_site_label
  _atom_site_symmetry_multiplicity
  _atom_site_fract_x
  _atom_site_fract_y
  _atom_site_fract_z
  _atom_site_attached_hydrogens
  _atom_site_B_iso_or_equiv
  _atom_site_occupancy
   Co  Co1  1  0.500000  0.000000  0.500000  0  .  1
   Co  Co2  1  0.000000  0.500000  0.500000  0  .  1
   Co  Co3  1  0.500000  0.000000  0.000000  0  .  1
   Co  Co4  1  0.000000  0.500000  0.000000  0  .  1
   O  O5  1  0.798330  0.821687  0.051051  0  .  1
   O  O6  1  0.298330  0.678313  0.948949  0  .  1
   O  O7  1  0.298330  0.678313  0.551051  0  .  1
   O  O8  1  0.612593  0.034868  0.750000  0  .  1
   O  O9  1  0.798330  0.821687  0.448949  0  .  1
   O  O10  1  0.112593  0.465132  0.250000  0  .  1
   O  O11  1  0.201670  0.178313  0.551051  0  .  1
   O  O12  1  0.387407  0.965132  0.250000  0  .  1
   O  O13  1  0.701670  0.321687  0.448949  0  .  1
   O  O14  1  0.701670  0.321687  0.051051  0  .  1
   O  O15  1  0.887407  0.534868  0.750000  0  .  1
   O  O16  1  0.201670  0.178313  0.948949  0  .  1
   Y  Y17  1  0.023437  0.912528  0.750000  0  .  1
   Y  Y18  1  0.476563  0.412528  0.750000  0  .  1
   Y  Y19  1  0.523437  0.587472  0.250000  0  .  1
   Y  Y20  1  0.976563  0.087472  0.250000  0  .  1
 
