#\#CIF1.1
##########################################################################
#               Crystallographic Information Format file 
#               Produced by PyCifRW module
# 
#  This is a CIF file.  CIF has been adopted by the International
#  Union of Crystallography as the standard for data archiving and 
#  transmission.
#
#  For information on this file format, follow the CIF links at
#  http://www.iucr.org
##########################################################################

data_YCrO4
_symmetry_space_group_name_H-M          'P 1'
_cell_length_a                          6.00574040844
_cell_length_b                          6.0057404044
_cell_length_c                          6.00574040246
_cell_angle_alpha                       105.979229414
_cell_angle_beta                        105.979229429
_cell_angle_gamma                       116.706623338
_chemical_name_systematic               'Generated by pymatgen'
_symmetry_Int_Tables_number             1
_chemical_formula_structural            YCrO4
_chemical_formula_sum                   'Y2 Cr2 O8'
_cell_volume                            164.736153363
_cell_formula_units_Z                   2
loop_
  _symmetry_equiv_pos_site_id
  _symmetry_equiv_pos_as_xyz
   1  'x, y, z'
 
loop_
  _atom_site_type_symbol
  _atom_site_label
  _atom_site_symmetry_multiplicity
  _atom_site_fract_x
  _atom_site_fract_y
  _atom_site_fract_z
  _atom_site_attached_hydrogens
  _atom_site_B_iso_or_equiv
  _atom_site_occupancy
   O  O1  1  0.799260  0.733050  0.433790  0  .  1
   O  O2  1  0.365471  0.799260  0.566210  0  .  1
   O  O3  1  0.733050  0.799260  0.933790  0  .  1
   O  O4  1  0.799260  0.365471  0.066210  0  .  1
   O  O5  1  0.634529  0.200740  0.433790  0  .  1
   O  O6  1  0.200740  0.266950  0.566210  0  .  1
   O  O7  1  0.200740  0.634529  0.933790  0  .  1
   O  O8  1  0.266950  0.200740  0.066210  0  .  1
   Cr  Cr9  1  0.375000  0.625000  0.750000  0  .  1
   Cr  Cr10  1  0.625000  0.375000  0.250000  0  .  1
   Y  Y11  1  0.125000  0.875000  0.250000  0  .  1
   Y  Y12  1  0.875000  0.125000  0.750000  0  .  1
 
