#\#CIF1.1
##########################################################################
#               Crystallographic Information Format file 
#               Produced by PyCifRW module
# 
#  This is a CIF file.  CIF has been adopted by the International
#  Union of Crystallography as the standard for data archiving and 
#  transmission.
#
#  For information on this file format, follow the CIF links at
#  http://www.iucr.org
##########################################################################

data_YCuS2
_symmetry_space_group_name_H-M          'P 1'
_cell_length_a                          3.96218863
_cell_length_b                          6.26498422
_cell_length_c                          13.48884744
_cell_angle_alpha                       90.0
_cell_angle_beta                        90.0
_cell_angle_gamma                       90.0
_chemical_name_systematic               'Generated by pymatgen'
_symmetry_Int_Tables_number             1
_chemical_formula_structural            YCuS2
_chemical_formula_sum                   'Y4 Cu4 S8'
_cell_volume                            334.834324243
_cell_formula_units_Z                   4
loop_
  _symmetry_equiv_pos_site_id
  _symmetry_equiv_pos_as_xyz
   1  'x, y, z'
 
loop_
  _atom_site_type_symbol
  _atom_site_label
  _atom_site_symmetry_multiplicity
  _atom_site_fract_x
  _atom_site_fract_y
  _atom_site_fract_z
  _atom_site_attached_hydrogens
  _atom_site_B_iso_or_equiv
  _atom_site_occupancy
   S  S1  1  0.250000  0.258083  0.796397  0  .  1
   S  S2  1  0.750000  0.741917  0.203603  0  .  1
   S  S3  1  0.750000  0.758083  0.703603  0  .  1
   S  S4  1  0.250000  0.241917  0.296397  0  .  1
   S  S5  1  0.250000  0.747420  0.960513  0  .  1
   S  S6  1  0.250000  0.752580  0.460513  0  .  1
   S  S7  1  0.750000  0.247420  0.539487  0  .  1
   S  S8  1  0.750000  0.252580  0.039487  0  .  1
   Cu  Cu9  1  0.250000  0.125817  0.955474  0  .  1
   Cu  Cu10  1  0.750000  0.625817  0.544526  0  .  1
   Cu  Cu11  1  0.750000  0.874183  0.044526  0  .  1
   Cu  Cu12  1  0.250000  0.374183  0.455474  0  .  1
   Y  Y13  1  0.250000  0.500022  0.133515  0  .  1
   Y  Y14  1  0.750000  0.499978  0.866485  0  .  1
   Y  Y15  1  0.750000  1.000022  0.366485  0  .  1
   Y  Y16  1  0.250000  -0.000022  0.633515  0  .  1
 
