#\#CIF1.1
##########################################################################
#               Crystallographic Information Format file 
#               Produced by PyCifRW module
# 
#  This is a CIF file.  CIF has been adopted by the International
#  Union of Crystallography as the standard for data archiving and 
#  transmission.
#
#  For information on this file format, follow the CIF links at
#  http://www.iucr.org
##########################################################################

data_YI3
_symmetry_space_group_name_H-M          'P 1'
_cell_length_a                          8.77045641337
_cell_length_b                          8.77045576837
_cell_length_c                          8.7704555537
_cell_angle_alpha                       52.1271123047
_cell_angle_beta                        52.1271151979
_cell_angle_gamma                       52.1271131063
_chemical_name_systematic               'Generated by pymatgen'
_symmetry_Int_Tables_number             1
_chemical_formula_structural            YI3
_chemical_formula_sum                   'Y2 I6'
_cell_volume                            388.770686711
_cell_formula_units_Z                   2
loop_
  _symmetry_equiv_pos_site_id
  _symmetry_equiv_pos_as_xyz
   1  'x, y, z'
 
loop_
  _atom_site_type_symbol
  _atom_site_label
  _atom_site_symmetry_multiplicity
  _atom_site_fract_x
  _atom_site_fract_y
  _atom_site_fract_z
  _atom_site_attached_hydrogens
  _atom_site_B_iso_or_equiv
  _atom_site_occupancy
   Y  Y1  1  0.166398  0.166398  0.166398  0  .  1
   Y  Y2  1  0.833602  0.833602  0.833602  0  .  1
   I  I3  1  0.221678  0.577622  0.935257  0  .  1
   I  I4  1  0.064743  0.778322  0.422378  0  .  1
   I  I5  1  0.422378  0.064743  0.778322  0  .  1
   I  I6  1  0.778322  0.422378  0.064743  0  .  1
   I  I7  1  0.577622  0.935257  0.221678  0  .  1
   I  I8  1  0.935257  0.221678  0.577622  0  .  1
 
