#\#CIF1.1
##########################################################################
#               Crystallographic Information Format file 
#               Produced by PyCifRW module
# 
#  This is a CIF file.  CIF has been adopted by the International
#  Union of Crystallography as the standard for data archiving and 
#  transmission.
#
#  For information on this file format, follow the CIF links at
#  http://www.iucr.org
##########################################################################

data_YMn2O5
_symmetry_space_group_name_H-M          'P 1'
_cell_length_a                          5.79104471
_cell_length_b                          7.3749086
_cell_length_c                          8.58356291
_cell_angle_alpha                       90.0
_cell_angle_beta                        90.0
_cell_angle_gamma                       90.0
_chemical_name_systematic               'Generated by pymatgen'
_symmetry_Int_Tables_number             1
_chemical_formula_structural            YMn2O5
_chemical_formula_sum                   'Y4 Mn8 O20'
_cell_volume                            366.590456506
_cell_formula_units_Z                   4
loop_
  _symmetry_equiv_pos_site_id
  _symmetry_equiv_pos_as_xyz
   1  'x, y, z'
 
loop_
  _atom_site_type_symbol
  _atom_site_label
  _atom_site_symmetry_multiplicity
  _atom_site_fract_x
  _atom_site_fract_y
  _atom_site_fract_z
  _atom_site_attached_hydrogens
  _atom_site_B_iso_or_equiv
  _atom_site_occupancy
   Y  Y1  1  0.000000  0.138437  0.170702  0  .  1
   Y  Y2  1  0.000000  0.861563  0.829298  0  .  1
   Y  Y3  1  0.000000  0.638437  0.329298  0  .  1
   Y  Y4  1  0.000000  0.361563  0.670702  0  .  1
   Mn  Mn5  1  0.500000  0.411058  0.348959  0  .  1
   Mn  Mn6  1  0.500000  0.588942  0.651041  0  .  1
   Mn  Mn7  1  0.500000  0.911058  0.151041  0  .  1
   Mn  Mn8  1  0.500000  0.088942  0.848959  0  .  1
   Mn  Mn9  1  0.253746  0.000000  0.500000  0  .  1
   Mn  Mn10  1  0.746254  0.500000  0.000000  0  .  1
   Mn  Mn11  1  0.746254  0.000000  0.500000  0  .  1
   Mn  Mn12  1  0.253746  0.500000  0.000000  0  .  1
   O  O13  1  0.270586  0.000000  0.000000  0  .  1
   O  O14  1  0.729414  0.500000  0.500000  0  .  1
   O  O15  1  0.729414  0.000000  0.000000  0  .  1
   O  O16  1  0.270586  0.500000  0.500000  0  .  1
   O  O17  1  0.000000  0.163274  0.443118  0  .  1
   O  O18  1  0.000000  0.836726  0.556882  0  .  1
   O  O19  1  0.000000  0.663274  0.056882  0  .  1
   O  O20  1  0.000000  0.336726  0.943118  0  .  1
   O  O21  1  0.500000  0.151576  0.431885  0  .  1
   O  O22  1  0.500000  0.848424  0.568115  0  .  1
   O  O23  1  0.500000  0.651576  0.068115  0  .  1
   O  O24  1  0.500000  0.348424  0.931885  0  .  1
   O  O25  1  0.240892  0.394234  0.207094  0  .  1
   O  O26  1  0.240892  0.605766  0.792906  0  .  1
   O  O27  1  0.759108  0.894234  0.292906  0  .  1
   O  O28  1  0.759108  0.105766  0.707094  0  .  1
   O  O29  1  0.759108  0.605766  0.792906  0  .  1
   O  O30  1  0.759108  0.394234  0.207094  0  .  1
   O  O31  1  0.240892  0.105766  0.707094  0  .  1
   O  O32  1  0.240892  0.894234  0.292906  0  .  1
 
