#\#CIF1.1
##########################################################################
#               Crystallographic Information Format file 
#               Produced by PyCifRW module
# 
#  This is a CIF file.  CIF has been adopted by the International
#  Union of Crystallography as the standard for data archiving and 
#  transmission.
#
#  For information on this file format, follow the CIF links at
#  http://www.iucr.org
##########################################################################

data_Zn(InS2)2
_symmetry_space_group_name_H-M          'P 1'
_cell_length_a                          12.8314520979
_cell_length_b                          12.8314520892
_cell_length_c                          12.8314521751
_cell_angle_alpha                       17.6001336765
_cell_angle_beta                        17.6001337765
_cell_angle_gamma                       17.6001358508
_chemical_name_systematic               'Generated by pymatgen'
_symmetry_Int_Tables_number             1
_chemical_formula_structural            Zn(InS2)2
_chemical_formula_sum                   'Zn1 In2 S4'
_cell_volume                            168.594205066
_cell_formula_units_Z                   1
loop_
  _symmetry_equiv_pos_site_id
  _symmetry_equiv_pos_as_xyz
   1  'x, y, z'
 
loop_
  _atom_site_type_symbol
  _atom_site_label
  _atom_site_symmetry_multiplicity
  _atom_site_fract_x
  _atom_site_fract_y
  _atom_site_fract_z
  _atom_site_attached_hydrogens
  _atom_site_B_iso_or_equiv
  _atom_site_occupancy
   In  In1  1  0.162724  0.162724  0.162724  0  .  1
   In  In2  1  0.935178  0.935178  0.935178  0  .  1
   Zn  Zn3  1  0.392029  0.392029  0.392029  0  .  1
   S  S4  1  0.045251  0.045251  0.045251  0  .  1
   S  S5  1  0.297010  0.297010  0.297010  0  .  1
   S  S6  1  0.462964  0.462964  0.462964  0  .  1
   S  S7  1  0.870244  0.870244  0.870244  0  .  1
 
