#\#CIF1.1
##########################################################################
#               Crystallographic Information Format file 
#               Produced by PyCifRW module
# 
#  This is a CIF file.  CIF has been adopted by the International
#  Union of Crystallography as the standard for data archiving and 
#  transmission.
#
#  For information on this file format, follow the CIF links at
#  http://www.iucr.org
##########################################################################

data_ZrBrN
_symmetry_space_group_name_H-M          'P 1'
_cell_length_a                          10.3345370789
_cell_length_b                          10.3345370445
_cell_length_c                          10.3345364768
_cell_angle_alpha                       20.5239974498
_cell_angle_beta                        20.5239979805
_cell_angle_gamma                       20.5239975888
_chemical_name_systematic               'Generated by pymatgen'
_symmetry_Int_Tables_number             1
_chemical_formula_structural            ZrBrN
_chemical_formula_sum                   'Zr2 Br2 N2'
_cell_volume                            118.752976159
_cell_formula_units_Z                   2
loop_
  _symmetry_equiv_pos_site_id
  _symmetry_equiv_pos_as_xyz
   1  'x, y, z'
 
loop_
  _atom_site_type_symbol
  _atom_site_label
  _atom_site_symmetry_multiplicity
  _atom_site_fract_x
  _atom_site_fract_y
  _atom_site_fract_z
  _atom_site_attached_hydrogens
  _atom_site_B_iso_or_equiv
  _atom_site_occupancy
   Zr  Zr1  1  0.123542  0.123542  0.123542  0  .  1
   Zr  Zr2  1  0.876458  0.876458  0.876458  0  .  1
   Br  Br3  1  0.391147  0.391147  0.391147  0  .  1
   Br  Br4  1  0.608853  0.608853  0.608853  0  .  1
   N  N5  1  0.195530  0.195530  0.195530  0  .  1
   N  N6  1  0.804470  0.804470  0.804470  0  .  1
 
