#\#CIF1.1
##########################################################################
#               Crystallographic Information Format file 
#               Produced by PyCifRW module
# 
#  This is a CIF file.  CIF has been adopted by the International
#  Union of Crystallography as the standard for data archiving and 
#  transmission.
#
#  For information on this file format, follow the CIF links at
#  http://www.iucr.org
##########################################################################

data_ZrIN
_symmetry_space_group_name_H-M          'P 1'
_cell_length_a                          11.0514436445
_cell_length_b                          11.0514438454
_cell_length_c                          11.0514439645
_cell_angle_alpha                       19.5795798763
_cell_angle_beta                        19.5795771699
_cell_angle_gamma                       19.5795812276
_chemical_name_systematic               'Generated by pymatgen'
_symmetry_Int_Tables_number             1
_chemical_formula_structural            ZrIN
_chemical_formula_sum                   'Zr2 I2 N2'
_cell_volume                            132.550792685
_cell_formula_units_Z                   2
loop_
  _symmetry_equiv_pos_site_id
  _symmetry_equiv_pos_as_xyz
   1  'x, y, z'
 
loop_
  _atom_site_type_symbol
  _atom_site_label
  _atom_site_symmetry_multiplicity
  _atom_site_fract_x
  _atom_site_fract_y
  _atom_site_fract_z
  _atom_site_attached_hydrogens
  _atom_site_B_iso_or_equiv
  _atom_site_occupancy
   Zr  Zr1  1  0.793879  0.793879  0.793879  0  .  1
   Zr  Zr2  1  0.206121  0.206121  0.206121  0  .  1
   I  I3  1  0.392252  0.392252  0.392252  0  .  1
   I  I4  1  0.607748  0.607748  0.607748  0  .  1
   N  N5  1  0.139472  0.139472  0.139472  0  .  1
   N  N6  1  0.860528  0.860528  0.860528  0  .  1
 
